version 2
run General-0-20170423-23:35:21-10920
attr configname General
attr datetime 20170423-23:35:21
attr experiment General
attr inifile omnetpp.ini
attr iterationvars ""
attr iterationvars2 $repetition=0
attr measurement ""
attr network DVCastScenario
attr processid 10920
attr repetition 0
attr replication #0
attr resultdir results
attr runnumber 0
attr seedset 0
param **.coreDebug false
param **.debug false
param *.**.nic.mac1609_4.bitrate 18Mbps
param *.**.nic.mac1609_4.txPower 20mW
param *.**.nic.mac1609_4.useServiceChannel false
param *.**.nic.phy80211p.analogueModels "xmldoc(\"config.xml\")"
param *.**.nic.phy80211p.decider "xmldoc(\"config.xml\")"
param *.**.nic.phy80211p.sensitivity -89dBm
param *.**.nic.phy80211p.thermalNoise -110dBm
param *.**.nic.phy80211p.usePropagationDelay true
param *.**.nic.phy80211p.useThermalNoise true
param *.annotations.draw false
param *.connectionManager.alpha 2.0
param *.connectionManager.carrierFrequency "5.890e9 Hz"
param *.connectionManager.pMax 20mW
param *.connectionManager.sat -89dBm
param *.connectionManager.sendDirect true
param *.manager.autoShutdown true
param *.manager.host "\"localhost\""
param *.manager.launchConfig "xmldoc(\"uah.launchd.xml\")"
param *.manager.margin 25
param *.manager.moduleDisplayString "\"\""
param *.manager.moduleName "\"node\""
param *.manager.moduleType "\"org.car2x.veins.nodes.Car\""
param *.manager.port 9999
param *.manager.updateInterval 0.1s
param *.node[*0].veinsmobility.accidentCount 1
param *.node[*0].veinsmobility.accidentDuration 30s
param *.node[*0].veinsmobility.accidentStart 75s
param *.node[*].appl.beaconInterval 1s
param *.node[*].appl.beaconPriority 3
param *.node[*].appl.dataOnSch false
param *.node[*].appl.dataPriority 2
param *.node[*].appl.debug false
param *.node[*].appl.headerLength "256 bit"
param *.node[*].appl.maxOffset 0.005s
param *.node[*].appl.sendBeacons false
param *.node[*].appl.sendData true
param *.node[*].applType "\"DVCastLayer\""
param *.node[*].mobilityType "\"TraCIMobility\""
param *.node[*].mobilityType.debug true
param *.node[*].veinsmobility.x 0
param *.node[*].veinsmobility.y 0
param *.node[*].veinsmobility.z 1.895
param *.node[*].veinsmobilityType "\"org.car2x.veins.modules.mobility.traci.TraCIMobility\""
param *.node[*].veinsmobilityType.debug true
param *.playgroundSizeX 20000m
param *.playgroundSizeY 20000m
param *.playgroundSizeZ 5000m
param *.world.use2D false
param *.world.useTorus false

vector 2  DVCastScenario.node[0].veinsmobility  posx  ETV
vector 3  DVCastScenario.node[0].veinsmobility  posy  ETV
vector 4  DVCastScenario.node[0].veinsmobility  speed  ETV
vector 5  DVCastScenario.node[0].veinsmobility  acceleration  ETV
vector 6  DVCastScenario.node[0].veinsmobility  co2emission  ETV
vector 9  DVCastScenario.node[1].veinsmobility  posx  ETV
vector 10  DVCastScenario.node[1].veinsmobility  posy  ETV
vector 11  DVCastScenario.node[1].veinsmobility  speed  ETV
vector 12  DVCastScenario.node[1].veinsmobility  acceleration  ETV
vector 13  DVCastScenario.node[1].veinsmobility  co2emission  ETV
vector 16  DVCastScenario.node[2].veinsmobility  posx  ETV
vector 17  DVCastScenario.node[2].veinsmobility  posy  ETV
vector 18  DVCastScenario.node[2].veinsmobility  speed  ETV
vector 19  DVCastScenario.node[2].veinsmobility  acceleration  ETV
vector 20  DVCastScenario.node[2].veinsmobility  co2emission  ETV
vector 23  DVCastScenario.node[3].veinsmobility  posx  ETV
vector 24  DVCastScenario.node[3].veinsmobility  posy  ETV
vector 25  DVCastScenario.node[3].veinsmobility  speed  ETV
vector 26  DVCastScenario.node[3].veinsmobility  acceleration  ETV
vector 27  DVCastScenario.node[3].veinsmobility  co2emission  ETV
vector 30  DVCastScenario.node[4].veinsmobility  posx  ETV
vector 31  DVCastScenario.node[4].veinsmobility  posy  ETV
vector 32  DVCastScenario.node[4].veinsmobility  speed  ETV
vector 33  DVCastScenario.node[4].veinsmobility  acceleration  ETV
vector 34  DVCastScenario.node[4].veinsmobility  co2emission  ETV
vector 37  DVCastScenario.node[5].veinsmobility  posx  ETV
vector 38  DVCastScenario.node[5].veinsmobility  posy  ETV
vector 39  DVCastScenario.node[5].veinsmobility  speed  ETV
vector 40  DVCastScenario.node[5].veinsmobility  acceleration  ETV
vector 41  DVCastScenario.node[5].veinsmobility  co2emission  ETV
vector 44  DVCastScenario.node[6].veinsmobility  posx  ETV
vector 45  DVCastScenario.node[6].veinsmobility  posy  ETV
vector 46  DVCastScenario.node[6].veinsmobility  speed  ETV
vector 47  DVCastScenario.node[6].veinsmobility  acceleration  ETV
vector 48  DVCastScenario.node[6].veinsmobility  co2emission  ETV
vector 51  DVCastScenario.node[7].veinsmobility  posx  ETV
vector 52  DVCastScenario.node[7].veinsmobility  posy  ETV
vector 53  DVCastScenario.node[7].veinsmobility  speed  ETV
vector 54  DVCastScenario.node[7].veinsmobility  acceleration  ETV
vector 55  DVCastScenario.node[7].veinsmobility  co2emission  ETV
vector 58  DVCastScenario.node[8].veinsmobility  posx  ETV
vector 59  DVCastScenario.node[8].veinsmobility  posy  ETV
vector 60  DVCastScenario.node[8].veinsmobility  speed  ETV
vector 61  DVCastScenario.node[8].veinsmobility  acceleration  ETV
vector 62  DVCastScenario.node[8].veinsmobility  co2emission  ETV
vector 65  DVCastScenario.node[9].veinsmobility  posx  ETV
vector 66  DVCastScenario.node[9].veinsmobility  posy  ETV
vector 67  DVCastScenario.node[9].veinsmobility  speed  ETV
vector 68  DVCastScenario.node[9].veinsmobility  acceleration  ETV
vector 69  DVCastScenario.node[9].veinsmobility  co2emission  ETV
vector 72  DVCastScenario.node[10].veinsmobility  posx  ETV
vector 73  DVCastScenario.node[10].veinsmobility  posy  ETV
vector 74  DVCastScenario.node[10].veinsmobility  speed  ETV
vector 75  DVCastScenario.node[10].veinsmobility  acceleration  ETV
vector 76  DVCastScenario.node[10].veinsmobility  co2emission  ETV
vector 79  DVCastScenario.node[11].veinsmobility  posx  ETV
vector 80  DVCastScenario.node[11].veinsmobility  posy  ETV
vector 81  DVCastScenario.node[11].veinsmobility  speed  ETV
vector 82  DVCastScenario.node[11].veinsmobility  acceleration  ETV
vector 83  DVCastScenario.node[11].veinsmobility  co2emission  ETV
vector 86  DVCastScenario.node[12].veinsmobility  posx  ETV
vector 87  DVCastScenario.node[12].veinsmobility  posy  ETV
vector 88  DVCastScenario.node[12].veinsmobility  speed  ETV
vector 89  DVCastScenario.node[12].veinsmobility  acceleration  ETV
vector 90  DVCastScenario.node[12].veinsmobility  co2emission  ETV
vector 93  DVCastScenario.node[13].veinsmobility  posx  ETV
vector 94  DVCastScenario.node[13].veinsmobility  posy  ETV
vector 95  DVCastScenario.node[13].veinsmobility  speed  ETV
vector 96  DVCastScenario.node[13].veinsmobility  acceleration  ETV
vector 97  DVCastScenario.node[13].veinsmobility  co2emission  ETV
vector 100  DVCastScenario.node[14].veinsmobility  posx  ETV
vector 101  DVCastScenario.node[14].veinsmobility  posy  ETV
vector 102  DVCastScenario.node[14].veinsmobility  speed  ETV
vector 103  DVCastScenario.node[14].veinsmobility  acceleration  ETV
vector 104  DVCastScenario.node[14].veinsmobility  co2emission  ETV
vector 107  DVCastScenario.node[15].veinsmobility  posx  ETV
vector 108  DVCastScenario.node[15].veinsmobility  posy  ETV
vector 109  DVCastScenario.node[15].veinsmobility  speed  ETV
vector 110  DVCastScenario.node[15].veinsmobility  acceleration  ETV
vector 111  DVCastScenario.node[15].veinsmobility  co2emission  ETV
vector 114  DVCastScenario.node[16].veinsmobility  posx  ETV
vector 115  DVCastScenario.node[16].veinsmobility  posy  ETV
vector 116  DVCastScenario.node[16].veinsmobility  speed  ETV
vector 117  DVCastScenario.node[16].veinsmobility  acceleration  ETV
vector 118  DVCastScenario.node[16].veinsmobility  co2emission  ETV
55	84	8.3	1.4322324332167
55	85	8.4	1.5848146051446
55	86	8.5	1.7311677924583
55	87	8.6	1.9475075734934
55	88	8.7	1.890955267136
55	89	8.8	2.1907601332617
55	90	8.9	1.9530297438602
55	91	9	2.2422424944212
55	92	9.1	2.4891249907402
55	93	9.2	2.5682987670743
55	94	9.3	2.4537223335336
55	95	9.4	3.0533097437895
55	96	9.5	2.6220311326332
55	97	9.6	2.8907624968758
55	98	9.7	2.995773042105
55	99	9.8	3.2727776495947
55	100	9.9	3.8257908590443
55	101	10	2.6790308108025
55	102	10.1	2.8321315703029
55	103	10.2	3.8813545779175
55	104	10.3	3.4342693688961
55	105	10.4	3.3183294093905
55	106	10.5	3.7721458551293
55	107	10.6	3.1678017186055
55	108	10.7	4.2992214041557
55	109	10.8	3.7370020151127
55	110	10.9	4.1658730030846
55	111	11	4.7689056644772
55	112	11.1	3.6127880963103
55	113	11.2	4.7585592272302
55	114	11.3	5.6248304829749
55	115	11.4	4.9127844178178
55	116	11.5	5.161644880059
55	117	11.6	5.3856503419015
55	118	11.7	6.2216861941169
55	119	11.8	4.7316551155128
55	120	11.9	5.5756353572303
55	121	12	5.4106218279073
55	122	12.1	5.6632770102393
55	123	12.2	0.973
55	124	12.3	0.973
55	125	12.4	0.973
55	126	12.5	0.973
55	127	12.6	0.973
55	128	12.7	0.973
55	129	12.8	0.973
55	130	12.9	0.973
55	131	13	0.973
55	132	13.1	0.973
55	133	13.2	0.973
55	134	13.3	0.973
55	135	13.4	0.973
55	136	13.5	0.973
55	137	13.6	0.973
55	138	13.7	0.973
55	139	13.8	0.973
55	140	13.9	0.973
55	141	14	0.973
55	142	14.1	0.973
55	143	14.2	3.4974635621448
55	144	14.3	3.6738885400076
55	145	14.4	3.8504555920124
55	146	14.5	4.0271744600662
55	147	14.6	4.2040548860763
55	148	14.7	4.3811066119499
55	149	14.8	4.558339379594
55	150	14.9	4.735762930916
55	151	15	4.9133870078228
55	152	15.1	5.0420735628035
55	153	15.2	3.5647978266287
55	154	15.3	4.579350559826
55	155	15.4	3.6786349143516
55	156	15.5	5.5592116274665
55	157	15.6	4.4061310420778
55	158	15.7	4.2652396646935
55	159	15.8	5.9867303441301
55	160	15.9	4.8944545456203
55	161	16	4.7951364567955
55	162	16.1	5.4965648999016
55	163	16.2	6.5105598508206
55	164	16.3	5.5853524638325
55	165	16.4	6.2413418157711
55	166	16.5	5.1932511543859
55	167	16.6	4.4374173533528
55	168	16.7	5.4557673870001
55	169	16.8	6.3649405385164
55	170	16.9	6.2078791249274
55	171	17	6.8637421073262
55	172	17.1	7.2961318102055
55	173	17.2	6.1030750431693
55	174	17.3	7.8388935467733
55	175	17.4	6.7378009973078
55	176	17.5	7.085999548569
55	177	17.6	7.3078857183207
55	178	17.7	7.3250101216639
55	179	17.8	6.5045905413369
55	180	17.9	7.1096901069494
55	181	18	8.0247305775881
55	182	18.1	6.0794312560553
55	183	18.2	7.40184459745
55	184	18.3	6.145652869395
55	185	18.4	8.6459265408368
55	186	18.5	5.9418006543279
55	187	18.6	7.8701885974923
55	188	18.7	10.077416526834
55	189	18.8	6.2936430626995
55	190	18.9	9.6589542328253
55	191	19	8.6870823749252
55	192	19.1	10.215655921014
55	193	19.2	3.2388739923341
55	194	19.3	0.973
55	195	19.4	3.8728362066519
55	196	19.5	2.2354833478224
55	197	19.6	1.8034020040285
55	198	19.7	2.3899619096179
55	199	19.8	0.973
55	200	19.9	3.0888734557289
55	201	20	0.973
55	202	20.1	2.6770071251412
55	203	20.2	1.1780015558137
55	204	20.3	2.3665556617622
55	205	20.4	2.5868631661856
55	206	20.5	1.9234746936663
55	207	20.6	0.973
55	208	20.7	2.1223170125356
55	209	20.8	1.2710141058993
55	210	20.9	4.1963622219913
55	211	21	0.973
55	212	21.1	1.3794262484936
55	213	21.2	3.5909748788901
55	214	21.3	3.3018021759047
55	215	21.4	0.973
55	216	21.5	3.593442514478
55	217	21.6	0.973
55	218	21.7	1.8709947120799
55	219	21.8	2.7497565221084
55	220	21.9	3.293358888765
55	221	22	2.1958561219915
55	222	22.1	0.973
55	223	22.2	1.2212371980757
55	224	22.3	2.9119312574405
55	225	22.4	2.2961822704379
55	226	22.5	0.973
55	227	22.6	2.4100711990058
55	228	22.7	5.432795308942
55	229	22.8	1.7503782787934
55	230	22.9	0.973
55	231	23	2.5287073372169
55	232	23.1	0.973
55	233	23.2	3.8964811848748
55	234	23.3	2.4115678246844
55	235	23.4	0.973
55	236	23.5	4.6285420611923
55	237	23.6	1.4517622923872
55	238	23.7	2.9228182570406
55	239	23.8	0.973
55	240	23.9	2.4039471328655
55	241	24	3.3927793069966
55	242	24.1	1.3001108055945
55	243	24.2	2.4701912825834
55	244	24.3	3.8462045552487
55	245	24.4	2.2096555907165
55	246	24.5	1.2375924050001
55	247	24.6	1.2694407987448
55	248	24.7	0.973
55	249	24.8	2.6988303011473
55	250	24.9	3.0448847886836
55	251	25	1.7917829215708
55	252	25.1	0.973
55	253	25.2	5.60560582501
55	254	25.3	1.7832261191576
55	255	25.4	0.973
55	256	25.5	5.2525825062366
55	257	25.6	0.973
55	258	25.7	4.2793013813297
55	259	25.8	0.973
55	260	25.9	1.97922722297
55	261	26	2.1003514887442
55	262	26.1	2.9952795796915
55	263	26.2	2.9482978990337
55	264	26.3	1.5356079570009
55	265	26.4	3.2479103089127
55	266	26.5	2.0983148693821
55	267	26.6	0.973
55	268	26.7	3.1770992765834
55	269	26.8	2.689271334155
55	270	26.9	1.3990848510508
55	271	27	0.973
55	272	27.1	0.973
55	273	27.2	0.973
55	274	27.3	0.973
55	275	27.4	0.973
55	276	27.5	0.973
55	277	27.6	0.973
55	278	27.7	0.973
55	279	27.8	0.973
55	280	27.9	0.973
55	281	28	0.973
55	282	28.1	0.973
55	283	28.2	0.973
55	284	28.3	0.973
55	285	28.4	0.973
55	286	28.5	0.973
55	287	28.6	0.973
55	288	28.7	0.973
55	289	28.8	0.973
55	290	28.9	0.973
55	291	29	0.973
55	292	29.1	0.973
55	293	29.2	0.973
55	294	29.3	0.973
55	295	29.4	0.973
55	296	29.5	0.973
55	297	29.6	0.973
55	298	29.7	0.973
55	299	29.8	0.973
55	300	29.9	0.973
55	301	30	0.973
55	302	30.1	0.973
55	303	30.2	0.973
55	304	30.3	0.973
55	305	30.4	0.973
55	306	30.5	0.973
55	307	30.6	0.973
55	308	30.7	3.4975840121359
55	309	30.8	3.6740090837092
55	310	30.9	3.850576236078
55	311	31	4.0272952111496
55	312	31.1	3.3184289191235
55	313	31.2	4.3288218266981
55	314	31.3	4.5060001366318
55	315	31.4	4.6833663543926
55	316	31.5	4.8609302218879
55	317	31.6	4.4307561327629
55	318	31.7	4.957510327578
55	319	31.8	4.3030982513717
55	320	31.9	3.5564856472953
55	321	32	5.5127538592787
55	322	32.1	4.6788735003246
55	323	32.2	4.851369950035
55	324	32.3	4.2166499912154
55	325	32.4	6.0002636355641
55	326	32.5	4.6027792078098
55	327	32.6	5.2795951317873
55	328	32.7	6.2317758196672
55	329	32.8	6.4024205610596
55	330	32.9	6.0599831174278
55	331	33	6.8489721148975
55	332	33.1	6.624222050076
55	333	33.2	5.5787439327979
55	334	33.3	7.0539143546993
55	335	33.4	6.7544797029027
55	336	33.5	6.3092437716203
55	337	33.6	6.8931775317416
55	338	33.7	5.9497379250807
55	339	33.8	6.9336771689185
55	340	33.9	6.6490830463792
55	341	34	7.6585682767172
55	342	34.1	5.9860159238585
55	343	34.2	8.5227669759517
55	344	34.3	8.4996075238306
55	345	34.4	6.8652973089726
55	346	34.5	7.4956814589137
55	347	34.6	7.6984004453055
55	348	34.7	7.4782829216311
55	349	34.8	7.9831126493093
55	350	34.9	7.8120187471944
55	351	35	6.6568067752391
55	352	35.1	10.018899624074
55	353	35.2	8.9778079571442
55	354	35.3	7.5885884321211
55	355	35.4	10.52566729662
55	356	35.5	7.0202625307243
55	357	35.6	1.2187815646005
55	358	35.7	1.2335719107919
55	359	35.8	1.2627435828537
55	360	35.9	5.6349809752342
55	361	36	1.5611452006684
55	362	36.1	0.973
55	363	36.2	5.2812499358777
55	364	36.3	0.973
55	365	36.4	2.983195977992
55	366	36.5	0.973
55	367	36.6	3.4974837784057
55	368	36.7	0.973
55	369	36.8	2.0118270289941
55	370	36.9	4.0581167201679
55	371	37	0.973
55	372	37.1	4.2314080311692
55	373	37.2	1.2733272889908
55	394	37.3	2.823639407393
55	415	37.4	0.973
55	436	37.5	1.524053854702
55	457	37.6	3.9567100386437
55	478	37.7	1.2430576388723
55	499	37.8	0.973
55	520	37.9	3.8438660685714
55	541	38	1.2149555935997
55	562	38.1	0.973
55	583	38.2	1.8238217083515
55	604	38.3	5.1495182932115
55	625	38.4	2.2414923006601
55	646	38.5	0.973
55	667	38.6	2.4354586577792
55	688	38.7	2.9215780951413
54	84	8.3	2.4693884058534
54	85	8.4	2.4434967458012
54	86	8.5	2.412386255906
54	87	8.6	2.589637225778
54	88	8.7	2.0354790821962
54	89	8.8	2.4466310824211
54	90	8.9	1.6777830527908
54	91	9	2.069627123972
54	92	9.1	2.2888606205627
54	93	9.2	2.2011426491247
54	94	9.3	1.8595544085838
54	95	9.4	2.5245620887959
54	96	9.5	1.797044705064
54	97	9.6	2.0101941086352
54	98	9.7	2.0071809895802
54	99	9.8	2.1839777117828
54	100	9.9	2.5999280445278
54	101	10	1.3613708443008
54	102	10.1	1.4556131141726
54	103	10.2	2.3302888976643
54	104	10.3	1.8371803510701
54	105	10.4	1.6680824161274
54	106	10.5	1.9655268300092
54	107	10.6	1.4251643386204
54	108	10.7	2.220208210079
54	109	10.8	1.729108495079
54	110	10.9	1.9686841284856
54	111	11	2.2987878868356
54	112	11.1	1.463425639132
54	113	11.2	2.1485964347376
54	114	11.3	2.5947374627693
54	115	11.4	2.0785279560834
54	116	11.5	2.1533128506737
54	117	11.6	2.2076198634226
54	118	11.7	2.5818670823704
54	119	11.8	1.7193646281958
54	120	11.9	2.10725609574
54	121	12	1.9656850571046
54	122	12.1	2.0365293308161
54	123	12.2	-1.6531625673636
54	124	12.3	-3.0761483309368
54	125	12.4	-3.2120623331472
54	126	12.5	-3.1062323652841
54	127	12.6	-2.8514909751443
54	128	12.7	-3.1138257258611
54	129	12.8	-2.7286253243568
54	130	12.9	-2.5330954484075
54	131	13	-1.9797027356942
54	132	13.1	-3.0910820638676
54	133	13.2	-2.6264583837476
54	134	13.3	-1.7518109863014
54	135	13.4	-3.5285041747696
54	136	13.5	-1.9024765494064
54	137	13.6	-2.4139329909004
54	138	13.7	-1.8141217874717
54	139	13.8	-2.1295206291666
54	140	13.9	-2.2455688474546
54	141	14	-2.851867977953
54	142	14.1	-2.1452086241705
54	143	14.2	2.6
54	144	14.3	2.6
54	145	14.4	2.6
54	146	14.5	2.6
54	147	14.6	2.6
54	148	14.7	2.6
54	149	14.8	2.6
54	150	14.9	2.6
54	151	15	2.6
54	152	15.1	2.5668534402736
54	153	15.2	1.4789858877193
54	154	15.3	2.0971247036243
54	155	15.4	1.4569948070683
54	156	15.5	2.5681143796537
54	157	15.6	1.7910996202612
54	158	15.7	1.658607797185
54	159	15.8	2.578066821699
54	160	15.9	1.8948058919748
54	161	16	1.7897169251926
54	162	16.1	2.106837102701
54	163	16.2	2.5531560311094
54	164	16.3	2.0196872609668
54	165	16.4	2.2783816214651
54	166	16.5	1.7256430013338
54	167	16.6	1.3387116551166
54	168	16.7	1.7770193876931
54	169	16.8	2.1391421225853
54	170	16.9	2.0174143206328
54	171	17	2.246101826313
54	172	17.1	2.3667669117916
54	173	17.2	1.8249255463947
54	174	17.3	2.4735646012938
54	175	17.4	1.9848529339535
54	176	17.5	2.0750694330549
54	177	17.6	2.112821486243
54	178	17.7	2.0734537062934
54	179	17.8	1.7346189513104
54	180	17.9	1.918560988293
54	181	18	2.2004110452021
54	182	18.1	1.4868409618968
54	183	18.2	1.9132956806337
54	184	18.3	1.4581157591427
54	185	18.4	2.2608241496608
54	186	18.5	1.3380491270916
54	187	18.6	1.9400737909134
54	188	18.7	2.5982016386464
54	189	18.8	1.371465191734
54	190	18.9	2.3841378326295
54	191	19	2.0450243328232
54	192	19.1	2.4600969824241
54	193	19.2	0.36362117490551
54	194	19.3	-0.38357417886145
54	195	19.4	0.55225082857069
54	196	19.5	0.062389430659824
54	197	19.6	-0.066594341886237
54	198	19.7	0.10840515401215
54	199	19.8	-0.50640971274115
54	200	19.9	0.31825747943948
54	201	20	-0.38992214838508
54	202	20.1	0.19587913861033
54	203	20.2	-0.25298671470955
54	204	20.3	0.10341932123993
54	205	20.4	0.16878602125216
54	206	20.5	-0.02988396922591
54	207	20.6	-0.31685759245885
54	208	20.7	0.030634879157887
54	209	20.8	-0.22468639605213
54	210	20.9	0.65015378284734
54	211	21	-0.62230812108609
54	212	21.1	-0.19180854458828
54	213	21.2	0.47112649700138
54	214	21.3	0.38212404157967
54	215	21.4	-0.51167749965098
54	216	21.5	0.46967714063356
54	217	21.6	-0.89791561672463
54	218	21.7	-0.043425122043121
54	219	21.8	0.22042975744698
54	220	21.9	0.38180278143846
54	221	22	0.05225405860692
54	222	22.1	-0.36051488446537
54	223	22.2	-0.23934708531016
54	224	22.3	0.26872130506673
54	225	22.4	0.083252954762418
54	226	22.5	-0.43444355621467
54	227	22.6	0.11870980521199
54	228	22.7	1.0185860015219
54	229	22.8	-0.082299154903733
54	230	22.9	-0.33803750597871
54	231	23	0.15133909932336
54	232	23.1	-0.59054287106264
54	233	23.2	0.56132120224648
54	234	23.3	0.11590898700524
54	235	23.4	-0.92960139240605
54	236	23.5	0.78097143380438
54	237	23.6	-0.1708862352185
54	238	23.7	0.26923044947909
54	239	23.8	-0.76399592391681
54	240	23.9	0.11632796006742
54	241	24	0.41140901497565
54	242	24.1	-0.2161267128773
54	243	24.2	0.13493483255152
54	244	24.3	0.54421714604832
54	245	24.4	0.054661422991202
54	246	24.5	-0.23557941175532
54	247	24.6	-0.22572602713479
54	248	24.7	-0.31338433073834
54	249	24.8	0.2034480317263
54	250	24.9	0.30570770902559
54	251	25	-0.069394619204104
54	252	25.1	-0.78095330751967
54	253	25.2	1.0702242701082
54	254	25.3	-0.072504056734033
54	255	25.4	-0.87085597182158
54	256	25.5	0.96445779839996
54	257	25.6	-0.58596099298448
54	258	25.7	0.67280122200026
54	259	25.8	-0.97735316290054
54	260	25.9	-0.011486540292385
54	261	26	0.02488151751459
54	262	26.1	0.29261973844841
54	263	26.2	0.27711642878129
54	264	26.3	-0.14586889254861
54	265	26.4	0.36563879190945
54	266	26.5	0.021669941279097
54	267	26.6	-0.81636545427608
54	268	26.7	0.34693379092495
54	269	26.8	0.19963310319
54	270	26.9	-0.18670075212139
54	271	27	-0.81590293864096
54	272	27.1	-3.9522233394643
54	273	27.2	-2.7487425574958
54	274	27.3	-4.4838806276743
54	275	27.4	-3.0533773971715
54	276	27.5	-2.7020805584778
54	277	27.6	-3.8753078726665
54	278	27.7	-3.7765612432194
54	279	27.8	-3.002003402254
54	280	27.9	-3.1982360585317
54	281	28	-2.866545286421
54	282	28.1	-3.1606838553067
54	283	28.2	-3.2829256569944
54	284	28.3	-3.2630739498941
54	285	28.4	-3.3750814844567
54	286	28.5	-2.0939681297642
54	287	28.6	-3.3618271612704
54	288	28.7	-3.978420554193
54	289	28.8	-2.2544990438856
54	290	28.9	-2.7874407574833
54	291	29	-2.9033519056348
54	292	29.1	-3.3087898298847
54	293	29.2	-2.0275406680066
54	294	29.3	-3.3183023933544
54	295	29.4	-2.2247898599649
54	296	29.5	-2.9577053293317
54	297	29.6	-3.1509849921335
54	298	29.7	-1.7375850800315
54	299	29.8	-3.2538485520841
54	300	29.9	-2.7903033059575
54	301	30	-1.5418870286341
54	302	30.1	-3.3995023117535
54	303	30.2	-1.4712452188317
54	304	30.3	-3.0778827566434
54	305	30.4	-1.1507514156596
54	306	30.5	-2.4833610390239
54	307	30.6	-2.7212029682417
54	308	30.7	2.6
54	309	30.8	2.6
54	310	30.9	2.6
54	311	31	2.6
54	312	31.1	1.8306936612586
54	313	31.2	2.6
54	314	31.3	2.6
54	315	31.4	2.6
54	316	31.5	2.6
54	317	31.6	2.1821514941985
54	318	31.7	2.447715544072
54	319	31.8	1.9253966168035
54	320	31.9	1.3883262547431
54	321	32	2.5574407423614
54	322	32.1	1.9658099158667
54	323	32.2	2.0045727471821
54	324	32.3	1.5855190002359
54	325	32.4	2.5235486628255
54	326	32.5	1.6943182630697
54	327	32.6	2.0053946945583
54	328	32.7	2.4297847633017
54	329	32.8	2.4357222178485
54	330	32.9	2.1974759830395
54	331	33	2.5017061232123
54	332	33.1	2.3250266240677
54	333	33.2	1.7983960252488
54	334	33.3	2.3978848113678
54	335	33.4	2.2062237460166
54	336	33.5	1.9669725708664
54	337	33.6	2.1599311571801
54	338	33.7	1.7331379727693
54	339	33.8	2.0849600718124
54	340	33.9	1.9293645872269
54	341	34	2.269487883267
54	342	34.1	1.5986601229059
54	343	34.2	2.4939964101184
54	344	34.3	2.4254528745543
54	345	34.4	1.7998085318599
54	346	34.5	1.9845985603053
54	347	34.6	2.0151564389234
54	348	34.7	1.9033521255711
54	349	34.8	2.0345582131296
54	350	34.9	1.9411993319169
54	351	35	1.5381273143226
54	352	35.1	2.5701438870048
54	353	35.2	2.1951157804113
54	354	35.3	1.7323569086613
54	355	35.4	2.5822479731636
54	356	35.5	1.4986469758023
54	357	35.6	-0.24063666879666
54	358	35.7	-0.2358809247613
54	359	35.8	-0.22678819394205
54	360	35.9	1.0791902682744
54	361	36	-0.13877270543016
54	362	36.1	-0.78430747198873
54	363	36.2	0.97290923751425
54	364	36.3	-0.66989948700648
54	365	36.4	0.28789390765597
54	366	36.5	-0.55718252765947
54	367	36.6	0.44276969768108
54	368	36.7	-0.3491214720998
54	369	36.8	-0.0018776519689645
54	370	36.9	0.60904257914517
54	371	37	-0.47450297079049
54	372	37.1	0.65949155569541
54	373	37.2	-0.22480155634693
54	394	37.3	0.23843480283393
54	415	37.4	-0.67565646022558
54	436	37.5	-0.14855288995895
54	457	37.6	0.57901260533836
54	478	37.7	-0.23354411686306
54	499	37.8	-0.33418261311017
54	520	37.9	0.54536626671908
54	541	38	-0.24193666840439
54	562	38.1	-0.30266227042302
54	583	38.2	-0.058260009903464
54	604	38.3	0.93330431154465
54	625	38.4	0.063917498919182
54	646	38.5	-1.0988447701559
54	667	38.6	0.12569087350276
54	688	38.7	0.27058857723604
53	83	8.2	0.25389976076828
53	84	8.3	0.50083860135362
53	85	8.4	0.74518827593374
53	86	8.5	0.98642690152434
53	87	8.6	1.2453906241021
53	88	8.7	1.4489385323218
53	89	8.8	1.6936016405639
53	90	8.9	1.8613799458429
53	91	9	2.0683426582401
53	92	9.1	2.2972287202964
53	93	9.2	2.5173429852089
53	94	9.3	2.7032984260673
53	95	9.4	2.9557546349469
53	96	9.5	3.1354591054533
53	97	9.6	3.3364785163168
53	98	9.7	3.5371966152748
53	99	9.8	3.7555943864531
53	100	9.9	4.0155871909059
53	101	10	4.1517242753359
53	102	10.1	4.2972855867532
53	103	10.2	4.5303144765196
53	104	10.3	4.7140325116266
53	105	10.4	4.8808407532394
53	106	10.5	5.0773934362403
53	107	10.6	5.2199098701023
53	108	10.7	5.4419306911102
53	109	10.8	5.6148415406181
53	110	10.9	5.8117099534667
53	111	11	6.0415887421503
53	112	11.1	6.1879313060635
53	113	11.2	6.4027909495372
53	114	11.3	6.6622646958142
53	115	11.4	6.8701174914225
53	116	11.5	7.0854487764899
53	117	11.6	7.3062107628321
53	118	11.7	7.5643974710692
53	119	11.8	7.7363339338887
53	120	11.9	7.9470595434627
53	121	12	8.1436280491732
53	122	12.1	8.3472809822548
53	123	12.2	8.1819647255185
53	124	12.3	7.8743498924248
53	125	12.4	7.5531436591101
53	126	12.5	7.2425204225816
53	127	12.6	6.9573713250672
53	128	12.7	6.6459887524811
53	129	12.8	6.3731262200454
53	130	12.9	6.1198166752047
53	131	13	5.9218464016352
53	132	13.1	5.6127381952485
53	133	13.2	5.3500923568737
53	134	13.3	5.1749112582436
53	135	13.4	4.8220608407666
53	136	13.5	4.631813185826
53	137	13.6	4.3904198867359
53	138	13.7	4.2090077079888
53	139	13.8	3.9960556450721
53	140	13.9	3.7714987603267
53	141	14	3.4863119625314
53	142	14.1	3.2717911001143
53	143	14.2	3.5317911001143
53	144	14.3	3.7917911001143
53	145	14.4	4.0517911001143
53	146	14.5	4.3117911001143
53	147	14.6	4.5717911001143
53	148	14.7	4.8317911001143
53	149	14.8	5.0917911001143
53	150	14.9	5.3517911001143
53	151	15	5.6117911001143
53	152	15.1	5.8684764441417
53	153	15.2	6.0163750329136
53	154	15.3	6.226087503276
53	155	15.4	6.3717869839828
53	156	15.5	6.6285984219482
53	157	15.6	6.8077083839743
53	158	15.7	6.9735691636928
53	159	15.8	7.2313758458627
53	160	15.9	7.4208564350602
53	161	16	7.5998281275795
53	162	16.1	7.8105118378496
53	163	16.2	8.0658274409605
53	164	16.3	8.2677961670572
53	165	16.4	8.4956343292037
53	166	16.5	8.6681986293371
53	167	16.6	8.8020697948487
53	168	16.7	8.9797717336181
53	169	16.8	9.1936859458766
53	170	16.9	9.3954273779399
53	171	17	9.6200375605712
53	172	17.1	9.8567142517503
53	173	17.2	10.03920680639
53	174	17.3	10.286563266519
53	175	17.4	10.485048559915
53	176	17.5	10.69255550322
53	177	17.6	10.903837651844
53	178	17.7	11.111183022474
53	179	17.8	11.284644917605
53	180	17.9	11.476501016434
53	181	18	11.696542120954
53	182	18.1	11.845226217144
53	183	18.2	12.036555785207
53	184	18.3	12.182367361122
53	185	18.4	12.408449776088
53	186	18.5	12.542254688797
53	187	18.6	12.736262067888
53	188	18.7	12.996082231753
53	189	18.8	13.133228750926
53	190	18.9	13.371642534189
53	191	19	13.576144967471
53	192	19.1	13.822154665714
53	193	19.2	13.858516783204
53	194	19.3	13.820159365318
53	195	19.4	13.875384448175
53	196	19.5	13.881623391241
53	197	19.6	13.874963957053
53	198	19.7	13.885804472454
53	199	19.8	13.83516350118
53	200	19.9	13.866989249124
53	201	20	13.827997034285
53	202	20.1	13.847584948146
53	203	20.2	13.822286276675
53	204	20.3	13.832628208799
53	205	20.4	13.849506810925
53	206	20.5	13.846518414002
53	207	20.6	13.814832654756
53	208	20.7	13.817896142672
53	209	20.8	13.795427503067
53	210	20.9	13.860442881351
53	211	21	13.798212069243
53	212	21.1	13.779031214784
53	213	21.2	13.826143864484
53	214	21.3	13.864356268642
53	215	21.4	13.813188518677
53	216	21.5	13.86015623274
53	217	21.6	13.770364671068
53	218	21.7	13.766022158863
53	219	21.8	13.788065134608
53	220	21.9	13.826245412752
53	221	22	13.831470818613
53	222	22.1	13.795419330166
53	223	22.2	13.771484621635
53	224	22.3	13.798356752142
53	225	22.4	13.806682047618
53	226	22.5	13.763237691997
53	227	22.6	13.775108672518
53	228	22.7	13.87696727267
53	229	22.8	13.86873735718
53	230	22.9	13.834933606582
53	231	23	13.850067516514
53	232	23.1	13.791013229408
53	233	23.2	13.847145349632
53	234	23.3	13.858736248333
53	235	23.4	13.765776109092
53	236	23.5	13.843873252473
53	237	23.6	13.826784628951
53	238	23.7	13.853707673899
53	239	23.8	13.777308081507
53	240	23.9	13.788940877514
53	241	24	13.830081779012
53	242	24.1	13.808469107724
53	243	24.2	13.821962590979
53	244	24.3	13.876384305584
53	245	24.4	13.881850447883
53	246	24.5	13.858292506707
53	247	24.6	13.835719903994
53	248	24.7	13.80438147092
53	249	24.8	13.824726274093
53	250	24.9	13.855297044995
53	251	25	13.848357583075
53	252	25.1	13.770262252323
53	253	25.2	13.877284679334
53	254	25.3	13.87003427366
53	255	25.4	13.782948676478
53	256	25.5	13.879394456318
53	257	25.6	13.82079835702
53	258	25.7	13.88807847922
53	259	25.8	13.79034316293
53	260	25.9	13.7891945089
53	261	26	13.791682660652
53	262	26.1	13.820944634497
53	263	26.2	13.848656277375
53	264	26.3	13.83406938812
53	265	26.4	13.870633267311
53	266	26.5	13.872800261439
53	267	26.6	13.791163716011
53	268	26.7	13.825857095104
53	269	26.8	13.845820405423
53	270	26.9	13.827150330211
53	271	27	13.745560036346
53	272	27.1	13.3503377024
53	273	27.2	13.07546344665
53	274	27.3	12.627075383883
53	275	27.4	12.321737644166
53	276	27.5	12.051529588318
53	277	27.6	11.663998801051
53	278	27.7	11.28634267673
53	279	27.8	10.986142336504
53	280	27.9	10.666318730651
53	281	28	10.379664202009
53	282	28.1	10.063595816478
53	283	28.2	9.7353032507787
53	284	28.3	9.4089958557893
53	285	28.4	9.0714877073436
53	286	28.5	8.8620908943672
53	287	28.6	8.5259081782402
53	288	28.7	8.1280661228209
53	289	28.8	7.9026162184323
53	290	28.9	7.623872142684
53	291	29	7.3335369521205
53	292	29.1	7.0026579691321
53	293	29.2	6.7999039023314
53	294	29.3	6.468073662996
53	295	29.4	6.2455946769995
53	296	29.5	5.9498241440663
53	297	29.6	5.6347256448529
53	298	29.7	5.4609671368498
53	299	29.8	5.1355822816414
53	300	29.9	4.8565519510456
53	301	30	4.7023632481822
53	302	30.1	4.3624130170069
53	303	30.2	4.2152884951237
53	304	30.3	3.9075002194594
53	305	30.4	3.7924250778934
53	306	30.5	3.544088973991
53	307	30.6	3.2719686771669
53	308	30.7	3.5319686771669
53	309	30.8	3.7919686771669
53	310	30.9	4.0519686771669
53	311	31	4.3119686771669
53	312	31.1	4.4950380432927
53	313	31.2	4.7550380432927
53	314	31.3	5.0150380432927
53	315	31.4	5.2750380432927
53	316	31.5	5.5350380432927
53	317	31.6	5.7532531927126
53	318	31.7	5.9980247471198
53	319	31.8	6.1905644088001
53	320	31.9	6.3293970342744
53	321	32	6.5851411085106
53	322	32.1	6.7817221000972
53	323	32.2	6.9821793748154
53	324	32.3	7.140731274839
53	325	32.4	7.3930861411216
53	326	32.5	7.5625179674286
53	327	32.6	7.7630574368844
53	328	32.7	8.0060359132146
53	329	32.8	8.2496081349994
53	330	32.9	8.4693557333034
53	331	33	8.7195263456246
53	332	33.1	8.9520290080314
53	333	33.2	9.1318686105562
53	334	33.3	9.371657091693
53	335	33.4	9.5922794662947
53	336	33.5	9.7889767233813
53	337	33.6	10.004969839099
53	338	33.7	10.178283636376
53	339	33.8	10.386779643558
53	340	33.9	10.57971610228
53	341	34	10.806664890607
53	342	34.1	10.966530902897
53	343	34.2	11.215930543909
53	344	34.3	11.458475831365
53	345	34.4	11.638456684551
53	346	34.5	11.836916540581
53	347	34.6	12.038432184474
53	348	34.7	12.228767397031
53	349	34.8	12.432223218344
53	350	34.9	12.626343151535
53	351	35	12.780155882968
53	352	35.1	13.037170271668
53	353	35.2	13.256681849709
53	354	35.3	13.429917540575
53	355	35.4	13.688142337892
53	356	35.5	13.838007035472
53	357	35.6	13.813943368592
53	358	35.7	13.790355276116
53	359	35.8	13.767676456722
53	360	35.9	13.875595483549
53	361	36	13.861718213006
53	362	36.1	13.783287465808
53	363	36.2	13.880578389559
53	364	36.3	13.813588440858
53	365	36.4	13.842377831624
53	366	36.5	13.786659578858
53	367	36.6	13.830936548626
53	368	36.7	13.796024401416
53	369	36.8	13.795836636219
53	370	36.9	13.856740894134
53	371	37	13.809290597055
53	372	37.1	13.875239752624
53	373	37.2	13.852759596989
53	394	37.3	13.876603077273
53	415	37.4	13.80903743125
53	436	37.5	13.794182142254
53	457	37.6	13.852083402788
53	478	37.7	13.828728991102
53	499	37.8	13.795310729791
53	520	37.9	13.849847356463
53	541	38	13.825653689622
53	562	38.1	13.79538746258
53	583	38.2	13.78956146159
53	604	38.3	13.882891892744
53	625	38.4	13.889283642636
53	646	38.5	13.779399165621
53	667	38.6	13.791968252971
53	688	38.7	13.819027110694
52	82	8.1	1756.3437279736
52	83	8.2	1756.3437279736
52	84	8.3	1756.3185059097
52	85	8.4	1756.2687532706
52	86	8.5	1756.1947272605
52	87	8.6	1756.0967369268
52	88	8.7	1755.9730214821
52	89	8.8	1755.8290858595
52	90	8.9	1755.6608457297
52	91	9	1755.4759387268
52	92	9.1	1755.2704723238
52	93	9.2	1755.0422686845
52	94	9.3	1754.7921991875
52	95	9.4	1754.5236571249
52	96	9.5	1754.2300363989
52	97	9.6	1753.9185640704
52	98	9.7	1753.5871227415
52	99	9.8	1753.2357423442
52	100	9.9	1752.8626666033
52	101	10	1752.4637635238
52	102	10.1	1752.0513367678
52	103	10.2	1751.6244501451
52	104	10.3	1751.1744147431
52	105	10.4	1750.7061290363
52	106	10.5	1750.2212728211
52	107	10.6	1749.7168913244
52	108	10.7	1749.1983524351
52	109	10.8	1748.6577582933
52	110	10.9	1748.0999874182
52	111	11	1747.5226598974
52	112	11.1	1746.922496524
52	113	11.2	1746.3077956755
52	114	11.3	1745.6717509563
52	115	11.4	1745.009930461
52	116	11.5	1744.327462146
52	117	11.6	1743.6207756267
52	118	11.7	1742.890678728
52	119	11.8	1742.1347816818
52	120	11.9	1741.3617033247
52	121	12	1740.567567525
52	122	12.1	1739.7537889774
52	123	12.2	1738.9196597473
52	124	12.3	1738.1020502825
52	125	12.4	1737.3151802314
52	126	12.5	1736.560407759
52	127	12.6	1735.8366753248
52	128	12.7	1735.1414373427
52	129	12.8	1734.4773152779
52	130	12.9	1733.8404598901
52	131	13	1733.2289172834
52	132	13.1	1732.6371575007
52	133	13.2	1732.0762863621
52	134	13.3	1731.541660964
52	135	13.4	1731.0245411075
52	136	13.5	1730.5426809778
52	137	13.6	1730.0798319645
52	138	13.7	1729.6411049626
52	139	13.8	1729.2205061633
52	140	13.9	1728.8211872922
52	141	14	1728.4443079989
52	142	14.1	1728.095926925
52	143	14.2	1727.7689825467
52	144	14.3	1727.4160568219
52	145	14.4	1727.0371497505
52	146	14.5	1726.6322613326
52	147	14.6	1726.2013915682
52	148	14.7	1725.7445404572
52	149	14.8	1725.2617079997
52	150	14.9	1724.7528941957
52	151	15	1724.2180990451
52	152	15.1	1723.657322548
52	153	15.2	1723.0732648644
52	154	15.3	1722.4750950348
52	155	15.4	1721.8560748305
52	156	15.5	1721.2225686555
52	157	15.6	1720.5731269645
52	158	15.7	1719.9812290148
52	159	15.8	1719.3749102572
52	160	15.9	1718.7461764315
52	161	16	1718.2962206252
52	162	16.1	1717.9047798024
52	163	16.2	1717.5024873914
52	164	16.3	1717.2906846357
52	165	16.4	1717.1825437658
52	166	16.5	1717.0714228252
52	167	16.6	1716.9818268246
52	168	16.7	1716.9914063509
52	169	16.8	1717.0011792749
52	170	16.9	1717.0111850075
52	171	17	1717.0214103006
52	172	17.1	1717.0318800429
52	173	17.2	1717.0426073667
52	174	17.3	1717.0535333021
52	175	17.4	1717.064728442
52	176	17.5	1717.0761395988
52	177	17.6	1717.0877765908
52	178	17.7	1717.0996435269
52	179	17.8	1717.1117361224
52	180	17.9	1717.1240175011
52	181	18	1717.1365076819
52	182	18.1	1717.1492373393
52	183	18.2	1717.1621288135
52	184	18.3	1717.1752285168
52	185	18.4	1717.1884869107
52	186	18.5	1717.201991356
52	187	18.6	1717.2156414249
52	188	18.7	1717.2295026371
52	189	18.8	1717.2436466184
52	190	18.9	1717.25793986
52	191	19	1717.2724925736
52	192	19.1	1717.2872678527
52	193	19.2	1717.3023108707
52	194	19.3	1717.3173934625
52	195	19.4	1717.3324343089
52	196	19.5	1717.3475352582
52	197	19.6	1717.3626429975
52	198	19.7	1717.3777434892
52	199	19.8	1717.392855779
52	200	19.9	1717.4079129548
52	201	20	1717.4230047674
52	202	20.1	1717.4380541437
52	203	20.2	1717.4531248381
52	204	20.3	1717.4681679993
52	205	20.4	1717.4832224159
52	206	20.5	1717.4982952019
52	207	20.6	1717.5133647356
52	208	20.7	1717.5283997848
52	209	20.8	1717.5434381681
52	210	20.9	1717.5584520981
52	211	21	1717.5735367861
52	212	21.1	1717.5885537467
52	213	21.2	1717.5728565468
52	214	21.3	1717.5538183994
52	215	21.4	1717.5347276348
52	216	21.5	1717.5157073265
52	217	21.6	1717.4966223452
52	218	21.7	1717.477661004
52	219	21.8	1717.4587056422
52	220	21.9	1717.439719928
52	221	22	1717.4206816408
52	222	22.1	1717.4016361584
52	223	22.2	1717.3826403177
52	224	22.3	1717.3636774343
52	225	22.4	1717.3446775489
52	226	22.5	1717.3256661998
52	227	22.6	1717.3067146721
52	228	22.7	1717.2877467986
52	229	22.8	1717.268638669
52	230	22.9	1717.2495418718
52	231	23	1717.2304916212
52	232	23.1	1717.1241042708
52	233	23.2	1716.6756487512
52	234	23.3	1715.6490312878
52	235	23.4	1714.3054871019
52	236	23.5	1712.9306633955
52	237	23.6	1711.5462765066
52	238	23.7	1710.1635984796
52	239	23.8	1708.7782281489
52	240	23.9	1707.4004977751
52	241	24	1706.021604122
52	242	24.1	1704.63859638
52	243	24.2	1703.2577499045
52	244	24.3	1701.8755540811
52	245	24.4	1700.487916088
52	246	24.5	1699.0997314808
52	247	24.6	1697.713902667
52	248	24.7	1696.3303311127
52	249	24.8	1694.9498934007
52	250	24.9	1693.5674212091
52	251	25	1692.1818919414
52	252	25.1	1690.7970566196
52	253	25.2	1689.4200308284
52	254	25.3	1688.0323027979
52	255	25.4	1686.6452998078
52	256	25.5	1685.2670051939
52	257	25.6	1683.8790655135
52	258	25.7	1682.4969854439
52	259	25.8	1681.108177361
52	260	25.9	1679.7291428113
52	261	26	1678.3502231271
52	262	26.1	1676.9710546277
52	263	26.2	1675.5889599304
52	264	26.3	1674.2040940683
52	265	26.4	1672.8206868954
52	266	26.5	1671.433623334
52	267	26.6	1670.0463430731
52	268	26.7	1668.6672264682
52	269	26.8	1667.2846405247
52	270	26.9	1665.9000582499
52	271	27	1664.5173429829
52	272	27.1	1663.1427867467
52	273	27.2	1661.8077527506
52	274	27.3	1660.5002061847
52	275	27.4	1659.2374984326
52	276	27.5	1658.0053244597
52	277	27.6	1656.800171297
52	278	27.7	1655.6337712195
52	279	27.8	1654.5051367609
52	280	27.9	1653.4065223413
52	281	28	1652.3398902878
52	282	28.1	1651.3019236919
52	283	28.2	1650.29556394
52	284	28.3	1649.3220334502
52	285	28.4	1648.3811337054
52	286	28.5	1647.4739847812
52	287	28.6	1646.5877755418
52	288	28.7	1645.7351845797
52	289	28.8	1644.9223778299
52	290	28.9	1644.1321160743
52	291	29	1643.3697287311
52	292	29.1	1642.6363749118
52	293	29.2	1641.9361089964
52	294	29.3	1641.2561184911
52	295	29.4	1640.6093110153
52	296	29.5	1639.984751442
52	297	29.6	1639.3897689269
52	298	29.7	1638.8262962671
52	299	29.8	1638.280199461
52	300	29.9	1637.7666411459
52	301	30	1637.2809858686
52	302	30.1	1636.8107494642
52	303	30.2	1636.3745080887
52	304	30.3	1635.9529791679
52	305	30.4	1635.5622290798
52	306	30.5	1635.1829865079
52	307	30.6	1634.8285775505
52	308	30.7	1634.5013806274
52	309	30.8	1634.1481836999
52	310	30.9	1633.7689867681
52	311	31	1633.3637898318
52	312	31.1	1632.9325928911
52	313	31.2	1632.5067392334
52	314	31.3	1632.113374648
52	315	31.4	1631.6985013404
52	316	31.5	1631.3196708456
52	317	31.6	1631.0678496397
52	318	31.7	1631.133117045
52	319	31.8	1631.4171558745
52	320	31.9	1631.9349813356
52	321	32	1632.4644198037
52	322	32.1	1633.0905077857
52	323	32.2	1633.7685968788
52	324	32.3	1634.4667292425
52	325	32.4	1635.1807148531
52	326	32.5	1635.9199328573
52	327	32.6	1636.6760919677
52	328	32.7	1637.4523025672
52	329	32.8	1638.2528080363
52	330	32.9	1639.0776677425
52	331	33	1639.9244995152
52	332	33.1	1640.796345283
52	333	33.2	1641.6914384676
52	334	33.3	1642.6045134082
52	335	33.4	1643.5415642582
52	336	33.5	1644.5006746416
52	337	33.6	1645.47945234
52	338	33.7	1646.4798267028
52	339	33.8	1647.4975303212
52	340	33.9	1648.5360809849
52	341	34	1649.5939229299
52	342	34.1	1650.6744569723
52	343	34.2	1651.7709756565
52	344	34.3	1652.8924312482
52	345	34.4	1654.038138396
52	346	34.5	1655.2018414233
52	347	34.6	1656.3853880038
52	348	34.7	1657.589083679
52	349	34.8	1658.8118105426
52	350	34.9	1660.0548804949
52	351	35	1661.3173600613
52	352	35.1	1662.5952190157
52	353	35.2	1663.898776259
52	354	35.3	1665.2242819698
52	355	35.4	1666.5671091265
52	356	35.5	1667.9357555981
52	357	35.6	1669.3193867027
52	358	35.7	1670.7006117356
52	359	35.8	1672.0794782483
52	360	35.9	1673.456077157
52	361	36	1674.8434666458
52	362	36.1	1676.2294685776
52	363	36.2	1677.6076283959
52	364	36.3	1678.9955161141
52	365	36.4	1680.3767056586
52	366	36.5	1681.7607737892
52	367	36.6	1683.1392707775
52	368	36.7	1684.5221949201
52	369	36.8	1685.9016281539
52	370	36.9	1687.2810420667
52	371	37	1688.6665456558
52	372	37.1	1690.0473047992
52	373	37.2	1691.4346580466
52	394	37.3	1692.819763555
52	415	37.4	1694.2072531181
52	436	37.5	1695.5879869479
52	457	37.6	1696.9672354317
52	478	37.7	1698.352273329
52	499	37.8	1699.7349760726
52	520	37.9	1701.1143374012
52	541	38	1702.4991517214
52	562	38.1	1703.8815469726
52	583	38.2	1705.2609159736
52	604	38.3	1706.6397024461
52	625	38.4	1708.0278208133
52	646	38.5	1709.4165782769
52	667	38.6	1710.7943486449
52	688	38.7	1712.173375767
51	82	8.1	6437.2324310417
51	83	8.2	6437.2324310417
51	84	8.3	6437.235330632
51	85	8.4	6437.2410503172
51	86	8.5	6437.2495605287
51	87	8.6	6437.2608257375
51	88	8.7	6437.275048368
51	89	8.8	6437.2915955598
51	90	8.9	6437.3109368572
51	91	9	6437.3321942192
51	92	9.1	6437.3558151401
51	93	9.2	6437.3820499895
51	94	9.3	6437.4107985914
51	95	9.4	6437.4416708447
51	96	9.5	6437.4754262025
51	97	9.6	6437.5112338244
51	98	9.7	6437.5493371314
51	99	9.8	6437.5897326826
51	100	9.9	6437.6326223836
51	101	10	6437.6784812587
51	102	10.1	6437.7258948488
51	103	10.2	6437.7749707805
51	104	10.3	6437.8267079527
51	105	10.4	6437.8805432246
51	106	10.5	6437.9362834827
51	107	10.6	6437.994268415
51	108	10.7	6438.0538809159
51	109	10.8	6438.1160289426
51	110	10.9	6438.1801516486
51	111	11	6438.2465226346
51	112	11.1	6438.315518886
51	113	11.2	6438.3861864013
51	114	11.3	6438.4593076601
51	115	11.4	6438.5353921654
51	116	11.5	6438.6138503945
51	117	11.6	6438.6572483481
51	118	11.7	6438.6835261547
51	119	11.8	6438.7107325659
51	120	11.9	6438.7385573706
51	121	12	6438.7671400794
51	122	12.1	6438.7964297742
51	123	12.2	6438.8264519352
51	124	12.3	6438.8558795132
51	125	12.4	6438.8842007115
51	126	12.5	6438.9113666468
51	127	12.6	6438.9374153823
51	128	12.7	6438.9624385392
51	129	12.8	6438.9863417653
51	130	12.9	6439.0092636032
51	131	13	6439.0312743779
51	132	13.1	6439.052573125
51	133	13.2	6439.0727601212
51	134	13.3	6439.092002475
51	135	13.4	6439.1106147656
51	136	13.5	6439.1279579804
51	137	13.6	6439.1446169429
51	138	13.7	6439.1604077008
51	139	13.8	6439.1755459844
51	140	13.9	6439.1899183562
51	141	14	6439.2034830779
51	142	14.1	6439.2160220854
51	143	14.2	6439.2277895387
51	144	14.3	6439.2404921183
51	145	14.4	6439.2541298242
51	146	14.5	6439.2687026563
51	147	14.6	6439.2842106148
51	148	14.7	6439.3006536995
51	149	14.8	6439.3180319105
51	150	14.9	6439.3363452478
51	151	15	6439.3555937114
51	152	15.1	6439.3757773013
51	153	15.2	6439.3301076234
51	154	15.3	6439.2661653313
51	155	15.4	6439.199994206
51	156	15.5	6439.1322745804
51	157	15.6	6439.0320187128
51	158	15.7	6438.6958436638
51	159	15.8	6438.3514781558
51	160	15.9	6437.9943817596
51	161	16	6437.4278097289
51	162	16.1	6436.7764778679
51	163	16.2	6436.1070896758
51	164	16.3	6435.3446625021
51	165	16.4	6434.5250685406
51	166	16.5	6433.6828887803
51	167	16.6	6432.8221417704
51	168	16.7	6431.9419246424
51	169	16.8	6431.0439371157
51	170	16.9	6430.124557921
51	171	17	6429.1850043506
51	172	17.1	6428.2229895029
51	173	17.2	6427.2373067133
51	174	17.3	6426.2333744577
51	175	17.4	6425.204706271
51	176	17.5	6424.1561893261
51	177	17.6	6423.0869214475
51	178	17.7	6421.9965251106
51	179	17.8	6420.8853939975
51	180	17.9	6419.7569164949
51	181	18	6418.6092531612
51	182	18.1	6417.4395854633
51	183	18.2	6416.2550491844
51	184	18.3	6415.0513797281
51	185	18.4	6413.8331289461
51	186	18.5	6412.5922696619
51	187	18.6	6411.3380297322
51	188	18.7	6410.0643888409
51	189	18.8	6408.7647656336
51	190	18.9	6407.4514276163
51	191	19	6406.1142479458
51	192	19.1	6404.7566177962
51	193	19.2	6403.3743863931
51	194	19.3	6401.9885187363
51	195	19.4	6400.6064868656
51	196	19.5	6399.2189324229
51	197	19.6	6397.8307540786
51	198	19.7	6396.4432416855
51	199	19.8	6395.0546452284
51	200	19.9	6393.6711129267
51	201	20	6392.2843980136
51	202	20.1	6390.9015823669
51	203	20.2	6389.5168079063
51	204	20.3	6388.1345633419
51	205	20.4	6386.7512845725
51	206	20.5	6385.3663179233
51	207	20.6	6383.9816501173
51	208	20.7	6382.6001509237
51	209	20.8	6381.2183453779
51	210	20.9	6379.8387867218
51	211	21	6378.452726453
51	212	21.1	6377.0728893372
51	213	21.2	6375.6950146259
51	214	21.3	6374.3124334909
51	215	21.4	6372.9260312075
51	216	21.5	6371.5447455759
51	217	21.6	6370.158763286
51	218	21.7	6368.7817599362
51	219	21.8	6367.4051908273
51	220	21.9	6366.0264174737
51	221	22	6364.6438261842
51	222	22.1	6363.2607123667
51	223	22.2	6361.8812036113
51	224	22.3	6360.5040882692
51	225	22.4	6359.1242857786
51	226	22.5	6357.7436507786
51	227	22.6	6356.3673601096
51	228	22.7	6354.9898823711
51	229	22.8	6353.6022190176
51	230	22.9	6352.2153786358
51	231	23	6350.8319185478
51	232	23.1	6349.4535274553
51	233	23.2	6348.1759708494
51	234	23.3	6347.2990083989
51	235	23.4	6347.0189204069
51	236	23.5	6346.9887673894
51	237	23.6	6346.9873080919
51	238	23.7	6346.9858505957
51	239	23.8	6346.9843902616
51	240	23.9	6346.9829379808
51	241	24	6346.9814844738
51	242	24.1	6346.9800266301
51	243	24.2	6346.9785710646
51	244	24.3	6346.9771140767
51	245	24.4	6346.9756513522
51	246	24.5	6346.9741880515
51	247	24.6	6346.972727234
51	248	24.7	6346.971268796
51	249	24.8	6346.9698136613
51	250	24.9	6346.9683563822
51	251	25	6346.9668958805
51	252	25.1	6346.9654361103
51	253	25.2	6346.9639845722
51	254	25.3	6346.9625217528
51	255	25.4	6346.9610596976
51	256	25.5	6346.9598593003
51	257	25.6	6346.9593357471
51	258	25.7	6346.9588144042
51	259	25.8	6346.9582905233
51	260	25.9	6346.9577703292
51	261	26	6346.9572501785
51	262	26.1	6346.9567299338
51	263	26.2	6346.9562085854
51	264	26.3	6346.9556861917
51	265	26.4	6346.9551643481
51	266	26.5	6346.9546411254
51	267	26.6	6346.9541178209
51	268	26.7	6346.9535975958
51	269	26.8	6346.9530760621
51	270	26.9	6346.9525537753
51	271	27	6346.9520321928
51	272	27.1	6346.9515136879
51	273	27.2	6346.9510100916
51	274	27.3	6346.9505168639
51	275	27.4	6346.9500405501
51	276	27.5	6346.9495757542
51	277	27.6	6346.949121151
51	278	27.7	6346.9486811661
51	279	27.8	6346.9482554269
51	280	27.9	6346.9478410118
51	281	28	6346.947438661
51	282	28.1	6346.9470471232
51	283	28.2	6346.9466675081
51	284	28.3	6346.9463002767
51	285	28.4	6346.9459453541
51	286	28.5	6346.9456031629
51	287	28.6	6346.9452688704
51	288	28.7	6346.9449472594
51	289	28.8	6346.9446406555
51	290	28.9	6346.944342556
51	291	29	6346.9440549712
51	292	29.1	6346.9437783383
51	293	29.2	6346.9435141867
51	294	29.3	6346.9432576833
51	295	29.4	6346.9430136971
51	296	29.5	6346.9427781031
51	297	29.6	6346.9425536661
51	298	29.7	6346.9423411152
51	299	29.8	6346.9421351186
51	300	29.9	6346.9419413961
51	301	30	6346.9417581991
51	302	30.1	6346.9415808184
51	303	30.2	6346.9414162611
51	304	30.3	6346.9412572536
51	305	30.4	6346.9411098563
51	306	30.5	6346.9409667999
51	307	30.6	6346.9408331111
51	308	30.7	6346.9407096871
51	309	30.8	6346.9405764556
51	310	30.9	6346.9404334164
51	311	31	6346.9402805695
51	312	31.1	6346.9401179151
51	313	31.2	6346.863572003
51	314	31.3	6346.59813086
51	315	31.4	6346.3181757013
51	316	31.5	6345.9726906986
51	317	31.6	6345.4810397728
51	318	31.7	6344.9676496491
51	319	31.8	6344.442042083
51	320	31.9	6344.0996091168
51	321	32	6343.7494965814
51	322	32.1	6343.640173711
51	323	32.2	6343.6404294971
51	324	32.3	6343.6406928439
51	325	32.4	6343.6409621708
51	326	32.5	6343.6412410158
51	327	32.6	6343.6415262512
51	328	32.7	6343.6418190504
51	329	32.8	6343.642121014
51	330	32.9	6343.6424321644
51	331	33	6343.642751603
51	332	33.1	6343.6430804773
51	333	33.2	6343.6434181209
51	334	33.3	6343.6437625475
51	335	33.4	6343.6441160182
51	336	33.5	6343.6444778101
51	337	33.6	6343.6448470209
51	338	33.7	6343.6452243782
51	339	33.8	6343.6456082725
51	340	33.9	6343.6460000305
51	341	34	6343.6463990656
51	342	34.1	6343.6468066605
51	343	34.2	6343.647220285
51	344	34.3	6343.6476433162
51	345	34.4	6343.6480754954
51	346	34.5	6343.648514463
51	347	34.6	6343.6489609159
51	348	34.7	6343.6494149693
51	349	34.8	6343.6498762016
51	350	34.9	6343.6503451077
51	351	35	6343.6508213354
51	352	35.1	6343.6513033644
51	353	35.2	6343.6517950872
51	354	35.3	6343.6522950894
51	355	35.4	6343.6528016255
51	356	35.5	6343.653317901
51	357	35.6	6343.653839829
51	358	35.7	6343.6543608494
51	359	35.8	6343.6548809801
51	360	35.9	6343.6554002554
51	361	36	6343.6559236011
51	362	36.1	6343.6564464235
51	363	36.2	6343.6569662876
51	364	36.3	6343.6574898212
51	365	36.4	6343.6580108282
51	366	36.5	6343.6585329211
51	367	36.6	6343.6590529124
51	368	36.7	6343.6595745737
51	369	36.8	6343.6602653372
51	370	36.9	6343.6617199038
51	371	37	6343.6631808917
51	372	37.1	6343.6646368768
51	373	37.2	6343.6660998152
51	394	37.3	6343.6675603834
51	415	37.4	6343.6690234655
51	436	37.5	6343.6704794238
51	457	37.6	6343.6719338159
51	478	37.7	6343.6733943128
51	499	37.8	6343.6748523474
51	520	37.9	6343.6763068584
51	541	38	6343.6777671196
51	562	38.1	6343.6792248298
51	583	38.2	6343.680679349
51	604	38.3	6343.6821332539
51	625	38.4	6343.6835969991
51	646	38.5	6343.6850614182
51	667	38.6	6343.6865142516
51	688	38.7	6343.6879684103
13	24	2.3	1.4309021354274
13	25	2.4	1.5843964237599
13	26	2.5	1.6612379235842
13	27	2.6	1.860333995049
13	28	2.7	1.902440209896
13	29	2.8	2.0964817650527
13	30	2.9	1.9353337638279
13	31	3	2.426400888677
13	32	3.1	2.068065907182
13	33	3.2	2.4008393576396
13	34	3.3	2.4992495751963
13	35	3.4	2.4007332520247
13	36	3.5	2.5190458699115
13	37	3.6	2.7111150771871
13	38	3.7	2.825286502975
13	39	3.8	2.9810105426588
13	40	3.9	2.7164707756693
13	41	4	3.5055670321553
13	42	4.1	3.9229908696862
13	43	4.2	3.9032641762101
13	44	4.3	3.691535583917
13	45	4.4	3.7080152136665
13	46	4.5	3.07797652119
13	47	4.6	3.0231592460158
13	48	4.7	4.4550390490054
13	49	4.8	2.7225656697675
13	50	4.9	2.1275006151995
13	51	5	0.973
13	52	5.1	1.3575205934279
13	53	5.2	0.973
13	54	5.3	2.3020786255489
13	55	5.4	1.613330357252
13	56	5.5	1.7400320261296
13	57	5.6	0.973
13	58	5.7	0.973
13	59	5.8	1.3189556856636
13	60	5.9	1.8590592321141
13	61	6	1.6720726179372
13	62	6.1	1.6437285729119
13	63	6.2	0.973
13	64	6.3	1.9318826708182
13	65	6.4	0.973
13	66	6.5	2.4979280309226
13	67	6.6	0.973
13	68	6.7	1.8214790696689
13	69	6.8	1.4397396496705
13	70	6.9	0.973
13	71	7	1.2989113881542
13	72	7.1	1.5904663899807
13	73	7.2	0.973
13	74	7.3	2.1407968259651
13	75	7.4	0.973
13	76	7.5	1.9897127095334
13	77	7.6	1.2639434630379
13	78	7.7	1.9428731750212
13	79	7.8	1.657927478995
13	80	7.9	0.973
13	81	8	1.5985224778862
13	82	8.1	0.973
13	83	8.2	2.9293050580188
13	84	8.3	1.307547813473
13	85	8.4	1.4376924006143
13	86	8.5	0.973
13	87	8.6	0.973
13	88	8.7	2.6310450325761
13	89	8.8	0.973
13	90	8.9	0.973
13	91	9	1.5418685582854
13	92	9.1	1.6083992242353
13	93	9.2	0.973
13	94	9.3	2.5269470287343
13	95	9.4	0.973
13	96	9.5	2.530400396084
13	97	9.6	0.973
13	98	9.7	1.3157649973296
13	99	9.8	1.4647375384738
13	100	9.9	0.973
13	101	10	0.973
13	102	10.1	0.973
13	103	10.2	0.973
13	104	10.3	0.973
13	105	10.4	0.973
13	106	10.5	0.973
13	107	10.6	0.973
13	108	10.7	0.973
13	109	10.8	3.519540124054
13	110	10.9	3.6959823526564
13	111	11	3.8725678748446
13	112	11.1	4.0493064325257
13	113	11.2	3.9302027815684
13	114	11.3	4.3860673205522
13	115	11.4	4.5633052983073
13	116	11.5	4.7407343325522
13	117	11.6	4.0864455635657
13	118	11.7	0.973
13	119	11.8	0.973
13	120	11.9	2.6341046809522
13	121	12	0.973
13	122	12.1	0.973
13	123	12.2	1.3530137205716
13	124	12.3	2.2140644323154
13	125	12.4	1.2206819231969
13	126	12.5	2.1494481624532
13	127	12.6	0.973
13	128	12.7	1.3822034021979
13	129	12.8	2.1761684148053
13	130	12.9	0.973
13	131	13	1.6187025887996
13	132	13.1	0.973
13	133	13.2	0.973
13	134	13.3	1.3705412809096
13	135	13.4	2.1172424596938
13	136	13.5	1.7539603225097
13	137	13.6	0.973
13	138	13.7	2.504697933786
13	139	13.8	0.973
13	140	13.9	0.973
13	141	14	0.973
13	142	14.1	2.2742978137323
13	143	14.2	1.3317863683711
13	144	14.3	1.9629814048944
13	145	14.4	0.973
13	146	14.5	1.4968628650732
13	147	14.6	1.3440469106841
13	148	14.7	1.3968549676025
13	149	14.8	0.973
13	150	14.9	0.973
13	151	15	2.6832419539293
13	152	15.1	0.973
13	153	15.2	2.3570451398132
13	154	15.3	1.3588100511455
13	155	15.4	0.973
13	156	15.5	2.4932503345928
13	157	15.6	0.973
13	158	15.7	0.973
13	159	15.8	0.973
13	160	15.9	1.4617495544126
13	161	16	1.3265335179011
13	162	16.1	1.310949829755
13	163	16.2	2.8360671352839
13	164	16.3	0.973
13	165	16.4	1.7693481841027
13	166	16.5	1.2642326384259
13	167	16.6	0.973
13	168	16.7	1.9794918801205
13	169	16.8	0.973
13	170	16.9	2.0799224442716
13	171	17	0.973
13	172	17.1	2.5977040009149
13	173	17.2	0.973
13	174	17.3	1.8764037107917
13	175	17.4	0.973
13	176	17.5	2.7469433045664
13	177	17.6	0.973
13	178	17.7	0.973
13	179	17.8	1.400609505929
13	180	17.9	0.973
13	181	18	0.973
13	182	18.1	0.973
13	183	18.2	0.973
13	184	18.3	0.973
13	185	18.4	0.973
13	186	18.5	0.973
13	187	18.6	0.973
13	188	18.7	0.973
13	189	18.8	3.5755831703194
13	190	18.9	3.7520698692694
13	191	19	3.9287029569355
13	192	19.1	4.1054921752249
13	193	19.2	4.2824472660446
13	194	19.3	4.4595779713019
13	195	19.4	4.636894032904
13	196	19.5	4.814405192758
13	197	19.6	2.641032564596
13	198	19.7	0.973
13	199	19.8	1.3928709568039
13	200	19.9	1.3998161727696
13	201	20	2.0219745912814
13	202	20.1	1.295033494866
13	203	20.2	0.973
13	204	20.3	0.973
13	205	20.4	0.973
13	206	20.5	0.973
13	207	20.6	0.973
13	208	20.7	0.973
13	209	20.8	0.973
13	210	20.9	0.973
13	211	21	0.973
13	212	21.1	0.973
13	213	21.2	0.973
13	214	21.3	3.5686344575501
13	215	21.4	3.7451155898628
13	216	21.5	3.921742727171
13	217	21.6	4.0985256113818
13	218	21.7	4.2754739844024
13	219	21.8	4.4525975881399
13	220	21.9	4.2331448944059
13	221	22	4.7867747567496
13	222	22.1	3.1830579052611
13	223	22.2	0.973
13	224	22.3	0.973
13	225	22.4	2.5868691650799
13	226	22.5	0.973
13	227	22.6	1.4396845114623
13	228	22.7	1.6911436737549
13	229	22.8	0.973
13	230	22.9	2.4441695498108
13	231	23	0.973
13	232	23.1	1.8513286977815
13	233	23.2	1.6231515196716
13	234	23.3	1.6892714169238
13	235	23.4	0.973
13	236	23.5	1.4549629051595
13	237	23.6	2.6781563026612
13	238	23.7	0.973
13	239	23.8	1.3909965622051
13	240	23.9	2.1399114767818
13	241	24	0.973
13	242	24.1	0.973
13	243	24.2	2.5478066496597
13	244	24.3	0.973
13	245	24.4	0.973
13	246	24.5	0.973
13	247	24.6	1.4948643607927
13	248	24.7	1.2667998369699
13	249	24.8	2.6359058389369
13	250	24.9	1.8110140964151
13	251	25	0.973
13	252	25.1	1.9041588607433
13	253	25.2	0.973
13	254	25.3	0.973
13	255	25.4	2.5672112297237
13	256	25.5	0.973
13	257	25.6	2.0438723723977
13	258	25.7	0.973
13	259	25.8	1.7031356211145
13	260	25.9	0.973
13	261	26	0.973
13	262	26.1	2.1221865328824
13	263	26.2	1.7656155901905
13	264	26.3	1.2548110538259
13	265	26.4	0.973
13	266	26.5	0.973
13	267	26.6	0.973
13	268	26.7	0.973
13	269	26.8	0.973
13	270	26.9	0.973
13	271	27	0.973
13	272	27.1	0.973
13	273	27.2	0.973
13	274	27.3	0.973
13	275	27.4	3.5101544387711
13	276	27.5	3.6865893148967
13	277	27.6	3.8631669661848
13	278	27.7	4.0398971345424
13	279	27.8	4.2167895618768
13	280	27.9	4.3938539900951
13	281	28	4.5711001611045
13	282	28.1	4.7485378168121
13	283	28.2	3.9333098303491
13	284	28.3	0.973
13	285	28.4	3.579742918535
13	286	28.5	3.9547472751562
13	287	28.6	3.8379180627717
13	288	28.7	4.1709886717079
13	289	28.8	4.2549278922926
13	290	28.9	4.3216721940835
13	291	29	3.8195480401023
13	292	29.1	3.7144560447903
13	293	29.2	5.5024448740236
13	294	29.3	4.4849068233549
13	295	29.4	5.6264642432739
13	296	29.5	5.3691933719784
13	297	29.6	4.5085673855989
13	298	29.7	6.5353792031626
13	299	29.8	6.5711771861739
13	300	29.9	4.4969385083881
13	301	30	4.4524729541993
13	302	30.1	4.6579890842827
13	303	30.2	4.6015309127197
13	304	30.3	6.2217325158465
13	305	30.4	7.394001386947
13	306	30.5	6.5023843299601
13	307	30.6	6.2416103167912
13	308	30.7	6.1542818502502
13	309	30.8	6.7172338338398
13	310	30.9	7.3581480775181
13	311	31	6.8236591535629
13	312	31.1	5.2078133518611
13	313	31.2	5.2106665610403
13	314	31.3	5.2424699938908
13	315	31.4	8.475545219982
13	316	31.5	6.8072508430626
13	317	31.6	0.973
13	318	31.7	0.973
13	319	31.8	0.973
13	320	31.9	0.973
13	321	32	0.973
13	322	32.1	0.973
13	323	32.2	0.973
13	324	32.3	0.973
13	325	32.4	0.973
13	326	32.5	0.973
13	327	32.6	0.973
13	328	32.7	0.973
13	329	32.8	0.973
13	330	32.9	0.973
13	331	33	0.973
13	332	33.1	0.973
13	333	33.2	0.973
13	334	33.3	0.973
13	335	33.4	0.973
13	336	33.5	0.973
13	337	33.6	0.973
13	338	33.7	0.973
13	339	33.8	0.973
13	340	33.9	0.973
13	341	34	0.973
13	342	34.1	0.973
13	343	34.2	0.973
13	344	34.3	0.973
13	345	34.4	0.973
13	346	34.5	0.973
13	347	34.6	0.973
13	348	34.7	0.973
13	349	34.8	0.973
13	350	34.9	0.973
13	351	35	0.973
13	352	35.1	0.973
13	353	35.2	0.973
13	354	35.3	0.973
13	355	35.4	0.973
13	356	35.5	0.973
13	357	35.6	0.973
13	358	35.7	0.973
13	359	35.8	0.973
13	360	35.9	0.973
13	361	36	0.973
13	362	36.1	0.973
13	363	36.2	0.973
13	364	36.3	0.973
13	365	36.4	0.973
13	366	36.5	0.973
13	367	36.6	0.973
13	368	36.7	0.973
13	369	36.8	0.973
13	370	36.9	0.973
13	371	37	0.973
13	372	37.1	0.973
13	373	37.2	0.973
13	394	37.3	0.973
13	415	37.4	0.973
13	436	37.5	0.973
13	457	37.6	0.973
13	478	37.7	0.973
13	499	37.8	0.973
13	520	37.9	0.973
13	541	38	0.973
13	562	38.1	0.973
13	583	38.2	0.973
13	604	38.3	0.973
13	625	38.4	0.973
13	646	38.5	1.1127371825228
13	667	38.6	1.1128108509862
13	688	38.7	0.973
13	709	38.8	1.1123922702741
13	730	38.9	1.1120722606745
13	751	39	1.1118650758436
13	772	39.1	1.111740608845
13	793	39.2	1.111564289249
13	814	39.3	1.1117509741103
13	835	39.4	1.1114927324587
13	856	39.5	1.1112995747695
13	877	39.6	1.1112068642559
13	898	39.7	1.111203130763
13	919	39.8	1.1110732863605
13	940	39.9	1.1110129640272
13	961	40	1.1108876714575
13	982	40.1	1.1108427917984
13	1003	40.2	1.1107409447098
13	1024	40.3	1.1106893300544
13	1045	40.4	1.1106267629752
13	1066	40.5	1.1105812820549
13	1087	40.6	1.1104910546391
13	1108	40.7	1.1104529548624
13	1129	40.8	1.1104174061223
13	1150	40.9	1.1103798806157
13	1171	41	1.1103481994451
13	1192	41.1	1.1103116634792
13	1213	41.2	1.1102803165204
13	1234	41.3	1.1102559012938
13	1255	41.4	1.1102361531405
13	1276	41.5	1.110211093554
13	1297	41.6	1.1101977592796
13	1318	41.7	1.1101759246938
13	1339	41.8	1.1101560633388
13	1360	41.9	1.1101472827742
13	1381	42	1.1101319280548
13	1402	42.1	1.1101146656162
13	1423	42.2	1.110105494818
13	1444	42.3	1.1100979197699
13	1465	42.4	1.110087579319
13	1486	42.5	1.1100762072136
13	1507	42.6	1.1100701209683
13	1528	42.7	1.1100633951696
13	1549	42.8	1.1100582109134
13	1570	42.9	1.110052691603
13	1591	43	1.1100464355762
13	1612	43.1	1.1100434415222
13	1633	43.2	1.1100387493546
13	1654	43.3	1.1100342055429
13	1675	43.4	1.1100306727905
13	1696	43.5	1.1100285883091
13	1717	43.6	1.1100249581417
13	1738	43.7	1.1100230703052
13	1759	43.8	1.1100202219603
13	1780	43.9	1.1100188268457
13	1801	44	1.1100169025034
13	1822	44.1	1.1100147991324
13	1843	44.2	1.1100136334375
13	1864	44.3	1.1100120767313
13	1885	44.4	1.1100109441719
13	1906	44.5	1.1100103082543
13	1927	44.6	1.1100089092817
13	1948	44.7	1.1100082457251
13	1969	44.8	1.1100073388872
13	1990	44.9	1.1100067777728
13	2011	45	1.1100062087315
13	2032	45.1	1.110005455083
13	2053	45.2	1.1100049645635
13	2074	45.3	1.1100044536124
13	2095	45.4	1.1100040080767
13	2116	45.5	1.1100036583171
13	2137	45.6	1.1100032148142
13	2158	45.7	1.1100030069442
13	2179	45.8	1.1100026398483
13	2200	45.9	1.1100024413883
13	2221	46	1.1100021988049
13	2242	46.1	1.1100019122241
13	2335	46.2	1.1100017515474
13	2356	46.3	1.1100016102365
13	2377	46.4	1.1100014644544
13	2398	46.5	1.1100012597423
13	2419	46.6	1.1100011699429
13	2440	46.7	1.110001066024
13	2461	46.8	1.1100009412784
13	2482	46.9	1.1100008549683
13	2503	47	1.1100007636755
13	2524	47.1	1.1100007044974
13	2545	47.2	1.1100006300776
13	2566	47.3	1.1100005825447
13	2587	47.4	1.1100005037964
13	2608	47.5	1.1100004606197
13	2629	47.6	1.1100004217358
13	2650	47.7	1.1100003713776
13	2677	47.8	1.1100003448017
13	2704	47.9	1.1100003005427
13	2731	48	1.110000274889
13	2758	48.1	1.1100002546828
13	2785	48.2	1.1100002200711
13	2812	48.3	1.1100002017357
13	2839	48.4	1.1100001889344
13	2866	48.5	1.1100001617826
13	2893	48.6	1.1100001525413
13	2920	48.7	1.1100001370822
13	2947	48.8	1.1100001237685
13	2974	48.9	1.1100001076659
13	3001	49	1.110000098166
13	3028	49.1	1.1100000914177
13	3055	49.2	1.110000079316
13	3082	49.3	1.1100000743547
13	3109	49.4	1.1100000647837
13	3136	49.5	1.1100000590906
13	3163	49.6	1.1100000531461
13	3190	49.7	1.1100000477723
13	3217	49.8	1.1100000444485
13	3244	49.9	1.1100000400209
13	3271	50	1.1100000352046
13	3298	50.1	1.110000032723
13	3325	50.2	1.1100000285155
13	3352	50.3	1.1100000264266
13	3379	50.4	1.110000024293
13	3406	50.5	1.1100000212533
13	3433	50.6	1.1100000191988
13	3460	50.7	1.1100000178308
13	3487	50.8	1.1100000161945
13	3514	50.9	1.1100000142788
13	3541	51	1.1100000129173
13	3568	51.1	1.1100000117649
13	3595	51.2	1.1100000105788
13	3622	51.3	1.110000009515
13	3649	51.4	1.1100000083317
13	3676	51.5	1.1100000077612
13	3703	51.6	1.1100000068041
13	3730	51.7	1.1100000061359
13	3757	51.8	1.1100000056302
13	3784	51.9	1.110000005168
13	3811	52	1.1100000045459
13	3838	52.1	1.273712230086
13	3865	52.2	1.4505181986848
13	3892	52.3	1.5599548338697
13	3919	52.4	1.7291697858535
13	3946	52.5	1.7771705809636
13	3973	52.6	1.8616407708302
13	3974	52.7	2.1140090723769
13	3975	52.8	2.2036968699579
13	3976	52.9	2.5285933609439
13	3977	53	2.5203916716968
13	3978	53.1	2.289707506978
13	3979	53.2	2.8684402988351
13	3980	53.3	2.4463057897266
13	3981	53.4	3.0274375049624
13	3982	53.5	2.6463319205551
13	3983	53.6	3.1244197156386
13	3984	53.7	2.5101994867725
13	3985	53.8	3.3728832167819
13	3986	53.9	2.6066511092932
13	3987	54	2.7319242977913
13	3988	54.1	3.4229422784012
13	3989	54.2	3.7415351718048
13	3990	54.3	2.985649988391
13	3991	54.4	3.5587520571511
13	3992	54.5	4.061927915118
13	3993	54.6	4.5514395968925
13	3994	54.7	4.448066026213
13	3995	54.8	3.2208883415475
13	3996	54.9	4.5798349787904
13	3997	55	3.4263197767998
13	3998	55.1	4.8153942270719
13	3999	55.2	5.1301824827374
13	4000	55.3	5.4657682629878
13	4001	55.4	4.3676593824979
13	4002	55.5	3.7886580500682
13	4003	55.6	4.3611878738565
13	4004	55.7	5.1970577261936
13	4005	55.8	6.1823989693876
13	4006	55.9	4.8424376956166
13	4007	56	4.1965262830646
13	4008	56.1	5.2747346970823
13	4009	56.2	5.5465369437779
13	4010	56.3	6.1976785216732
13	4011	56.4	5.5146596743276
13	4012	56.5	5.4692739394961
13	4013	56.6	5.6145989923662
13	4014	56.7	5.5174055648408
13	4015	56.8	7.2946070400062
13	4016	56.9	6.8214176842956
13	4017	57	5.8432824240066
13	4018	57.1	6.5083886372431
13	4019	57.2	5.4936597901068
13	4020	57.3	7.5651429220485
13	4021	57.4	7.0945518300495
13	4022	57.5	6.7713175515757
13	4023	57.6	7.1707945161049
13	4024	57.7	8.6204120753993
13	4025	57.8	7.0516012215118
13	4026	57.9	7.8031515903346
13	4027	58	5.8372225352372
13	4028	58.1	9.0673285695863
13	4029	58.2	7.2447843338377
13	4030	58.3	7.0869899072563
13	4031	58.4	7.463395084625
13	4032	58.5	9.8437141237293
13	4033	58.6	9.2315510219954
13	4034	58.7	10.200332271775
13	4035	58.8	7.63826556146
13	4036	58.9	7.0388156878527
13	4037	59	5.306937771825
13	4038	59.1	0.973
13	4039	59.2	3.7453137274146
13	4040	59.3	0.973
13	4041	59.4	2.0827876674847
13	4042	59.5	3.2585510429433
13	4043	59.6	0.973
13	4044	59.7	3.604386548709
13	4045	59.8	3.4705670417178
13	4046	59.9	0.973
13	4047	60	1.1000386707374
13	4048	60.1	3.7594208574193
13	4049	60.2	1.6683929515306
13	4050	60.3	1.2877785752268
13	4051	60.4	2.242270430357
13	4052	60.5	1.5677492670704
13	4053	60.6	0.973
13	4054	60.7	4.4100895747003
13	4055	60.8	0.973
13	4056	60.9	4.6348281315846
13	4057	61	1.5072993371959
13	4058	61.1	3.3293098948249
13	4059	61.2	0.973
13	4060	61.3	1.3233601406458
13	4061	61.4	2.7943781018927
13	4062	61.5	3.2860365196006
13	4063	61.6	2.5746283573773
13	4064	61.7	1.3093880079647
13	4065	61.8	3.0300672331273
13	4066	61.9	0.973
13	4067	62	2.3112702751632
13	4068	62.1	1.7325147660367
13	4069	62.2	0.973
13	4070	62.3	1.5073781394659
13	4071	62.4	4.1920779410604
13	4072	62.5	0.973
13	4073	62.6	1.9276150441047
13	4074	62.7	3.9038313163382
13	4075	62.8	1.5644073554775
13	4076	62.9	2.8365237693815
13	4077	63	1.770118442788
13	4078	63.1	0.973
13	4079	63.2	4.732343128358
13	4080	63.3	0.973
13	4081	63.4	3.9257286782328
13	4082	63.5	0.973
13	4083	63.6	1.4104187514305
13	4084	63.7	2.111860478874
13	4085	63.8	3.4125056240364
13	4086	63.9	0.973
13	4087	64	1.6943558800858
13	4088	64.1	2.322328025287
13	4089	64.2	2.8574250443624
13	4090	64.3	3.181196805305
13	4091	64.4	0.973
13	4092	64.5	0.973
13	4093	64.6	4.4473374926457
13	4094	64.7	0.973
13	4095	64.8	0.973
13	4096	64.9	4.7763026074652
13	4097	65	1.279441882644
13	4098	65.1	1.4313702851102
13	4099	65.2	1.2800904446488
13	4100	65.3	3.9787726474761
13	4101	65.4	0.973
13	4102	65.5	1.172071444814
13	4103	65.6	1.6446245641106
13	4104	65.7	2.7872398226544
13	4105	65.8	3.2308673144649
13	4106	65.9	0.973
13	4107	66	3.8797123944621
13	4108	66.1	3.527903889035
13	4109	66.2	2.621283205249
13	4110	66.3	0.973
13	4111	66.4	2.8382804269112
13	4112	66.5	2.4753979723763
13	4113	66.6	4.8658468826226
13	4114	66.7	0.973
13	4115	66.8	2.6729087482247
13	4116	66.9	2.7964256843536
13	4117	67	1.5878725185728
13	4118	67.1	2.8030891877954
13	4119	67.2	0.973
13	4120	67.3	2.7686818472648
13	4121	67.4	1.8702456601228
13	4122	67.5	2.1811610087561
13	4123	67.6	1.5772124405943
13	4124	67.7	2.733775039999
13	4125	67.8	2.6034088943349
13	4126	67.9	1.6172950073157
13	4127	68	1.3411892714364
13	4128	68.1	0.973
13	4129	68.2	3.6135493011597
13	4130	68.3	1.7241223640456
13	4131	68.4	1.1650185265408
13	4132	68.5	4.7254757099209
13	4133	68.6	0.973
13	4134	68.7	3.4029774216689
13	4135	68.8	0.973
13	4136	68.9	2.0008131717375
13	4137	69	3.5283769322969
13	4182	69.1	0.973
13	4227	69.2	3.2316407948108
13	4272	69.3	2.1855259379461
13	4317	69.4	2.6888148374672
13	4362	69.5	0.973
13	4407	69.6	4.8270970924586
13	4452	69.7	2.5500783335315
13	4497	69.8	2.8936108478916
13	4542	69.9	0.973
13	4587	70	2.0963531126158
13	4632	70.1	2.0354734606336
13	4677	70.2	0.973
13	4722	70.3	2.6329036013903
13	4767	70.4	4.6227793024144
13	4812	70.5	0.973
13	4857	70.6	5.567228691301
13	4902	70.7	0.973
13	4947	70.8	3.833510283247
13	4992	70.9	0.973
13	5037	71	3.0050445384001
13	5082	71.1	3.3918477010261
13	5127	71.2	3.103957495391
13	5172	71.3	0.973
13	5217	71.4	1.847899983545
13	5262	71.5	1.5275410070112
13	5307	71.6	4.7094862448675
13	5352	71.7	0.973
13	5397	71.8	2.5627729735516
13	5442	71.9	2.3421432007542
13	5487	72	4.1680086465521
13	5532	72.1	0.973
13	5577	72.2	2.9509309548582
13	5622	72.3	4.5897168652403
13	5667	72.4	0.973
13	5712	72.5	3.2518839019517
13	5757	72.6	0.973
13	5802	72.7	0.973
13	5847	72.8	0.973
13	5892	72.9	0.973
13	5937	73	0.973
13	5982	73.1	0.973
13	6027	73.2	0.973
13	6072	73.3	0.973
13	6117	73.4	0.973
13	6162	73.5	0.973
13	6207	73.6	0.973
13	6252	73.7	0.973
13	6297	73.8	0.973
13	6342	73.9	0.973
13	6387	74	0.973
13	6432	74.1	0.973
13	6477	74.2	0.973
13	6522	74.3	0.973
13	6567	74.4	0.973
13	6612	74.5	0.973
13	6657	74.6	0.973
13	6702	74.7	0.973
13	6747	74.8	0.973
13	6792	74.9	0.973
13	6837	75	0.973
13	6883	75.1	0.973
13	6928	75.2	0.973
13	6973	75.3	0.973
13	7018	75.4	0.973
13	7063	75.5	0.973
13	7108	75.6	0.973
13	7153	75.7	0.973
13	7198	75.8	0.973
13	7243	75.9	0.973
13	7288	76	0.973
13	7333	76.1	0.973
13	7378	76.2	3.6249595204246
13	7423	76.3	3.8014862051955
13	7468	76.4	3.9781620049959
13	7513	76.5	3.138105029326
13	7558	76.6	4.2707592162206
13	7603	76.7	4.4478780268933
13	7648	76.8	4.6251815507409
13	7693	76.9	4.8026795296704
13	7738	77	4.9803817055892
13	7783	77.1	4.6910880376111
13	7836	77.2	3.5887611164173
13	7889	77.3	5.0529251350819
13	7942	77.4	3.6138518781701
13	7995	77.5	4.657536849832
13	8048	77.6	3.426687580243
13	8101	77.7	0.973
13	8154	77.8	0.973
13	8207	77.9	0.973
13	8580	78	0.973
13	8633	78.1	0.973
13	8686	78.2	2.2386195279782
13	8739	78.3	1.6753501467293
13	8792	78.4	0.973
13	8845	78.5	2.0636793881723
13	8898	78.6	1.4773488999646
13	8951	78.7	0.973
13	9004	78.8	0.973
13	9057	78.9	1.7067524509954
13	9110	79	1.2894407418704
13	9163	79.1	0.973
13	9216	79.2	1.4365155383581
13	9269	79.3	2.6907773838244
13	9322	79.4	0.973
13	9375	79.5	1.4718570694024
13	9428	79.6	1.7618811911194
13	9481	79.7	0.973
13	9534	79.8	2.2736833935034
13	9587	79.9	0.973
13	9640	80	0.973
13	9693	80.1	2.0427728473491
13	9746	80.2	1.3243131344722
13	9799	80.3	1.6307509438741
13	9852	80.4	1.6932457571239
13	9905	80.5	0.973
13	9958	80.6	2.0765992231892
13	10011	80.7	0.973
13	10064	80.8	2.6295766571038
13	10117	80.9	0.973
13	10170	81	2.2480413187848
13	10223	81.1	0.973
13	10276	81.2	1.5888366675966
13	10329	81.3	1.6603461698578
13	10382	81.4	1.5366196276718
13	10435	81.5	0.973
13	10488	81.6	1.9657156316495
13	10541	81.7	2.3277997752779
13	10594	81.8	0.973
13	10647	81.9	1.4842712955444
13	10700	82	1.7304049964606
13	10753	82.1	1.3214933949151
13	10806	82.2	1.7977451112371
13	10859	82.3	1.4344945732522
13	10912	82.4	0.973
13	10965	82.5	1.5751615943648
13	11018	82.6	1.8126681122735
13	11071	82.7	2.0879310097235
13	11124	82.8	0.973
13	11177	82.9	1.9717719390888
13	11230	83	1.5524753761675
13	11283	83.1	1.4259434487891
13	11336	83.2	0.973
13	11389	83.3	1.9940381231373
13	11442	83.4	1.2137606700512
13	11495	83.5	0.973
13	11548	83.6	1.8736881772005
13	11607	83.7	1.9867236863481
13	11666	83.8	1.5045977547653
13	11725	83.9	0.973
13	11784	84	0.973
13	11843	84.1	1.8100046406831
13	11902	84.2	1.9849844700306
13	11961	84.3	0.973
13	12020	84.4	2.1121053180577
13	12079	84.5	0.973
13	12138	84.6	1.9362074400782
13	12197	84.7	0.973
13	12256	84.8	1.3757697872089
13	12315	84.9	2.2852858007047
13	12374	85	0.973
13	12433	85.1	0.973
13	12492	85.2	1.5660368174987
13	12551	85.3	1.5038368915518
13	12610	85.4	1.6883310513814
13	12669	85.5	1.3062588118795
13	12728	85.6	1.616076572256
13	12787	85.7	1.4571471949853
13	12846	85.8	0.973
13	12905	85.9	1.4580676988089
13	12964	86	2.5690824127444
13	13031	86.1	0.973
13	13090	86.2	2.1563000873758
13	13149	86.3	0.973
13	13208	86.4	2.3026064684325
13	13267	86.5	0.973
13	13326	86.6	1.4699749016268
13	13385	86.7	1.4652338910621
13	13444	86.8	0.973
13	13503	86.9	1.8189917007968
13	13562	87	0.973
13	13622	87.1	2.6085939309503
13	13681	87.2	0.973
13	13740	87.3	0.973
13	13799	87.4	1.6368364055275
13	13858	87.5	0.973
13	13917	87.6	2.3261781343384
13	13976	87.7	1.2495583641909
13	14035	87.8	2.1372182620991
13	14094	87.9	1.308890001854
13	14153	88	0.973
13	14212	88.1	1.4116825287106
13	14271	88.2	1.2441090590396
13	14330	88.3	2.6284836171037
13	14389	88.4	1.4506370194987
13	14448	88.5	0.973
13	14507	88.6	0.973
13	14566	88.7	1.291740728278
13	14625	88.8	1.9370198489732
13	14684	88.9	2.2550807508193
13	14743	89	0.973
13	14802	89.1	2.8282815144652
13	14861	89.2	0.973
13	14920	89.3	0.973
13	14979	89.4	1.3425353732427
13	15038	89.5	1.467452100423
13	15097	89.6	1.8184694585962
13	15156	89.7	0.973
13	15215	89.8	1.4555961216614
13	15274	89.9	1.224479891795
13	15333	90	0.973
13	15392	90.1	1.7564090368747
13	15451	90.2	1.6494811887455
13	15548	90.3	0.973
13	15613	90.4	1.6711721218654
13	15678	90.5	0.973
13	15687	90.6	1.9341808844286
13	15696	90.7	1.7949347999129
13	15705	90.8	0.973
13	15714	90.9	1.7964903758404
13	15723	91	0.973
13	15732	91.1	2.2478940831579
13	15741	91.2	1.6789375515231
13	15750	91.3	1.6039234109586
12	24	2.3	2.4777397813476
12	25	2.4	2.4512885773154
12	26	2.5	2.1809804627107
12	27	2.6	2.3941136606723
12	28	2.7	2.1268818289131
12	29	2.8	2.2920502375518
12	30	2.9	1.6898664032656
12	31	3	2.4546854435278
12	32	3.1	1.5923508903848
12	33	3.2	2.0138064404013
12	34	3.3	2.0000768283615
12	35	3.4	1.71745660624
12	36	3.5	1.7681026779115
12	37	3.6	1.9014148032991
12	38	3.7	1.9215971733676
12	39	3.8	1.9843194504501
12	40	3.9	1.5934962075437
12	41	4	2.318484536279
12	42	4.1	2.5755732625723
12	43	4.2	2.4054226770764
12	44	4.3	2.0975643285317
12	45	4.4	2.0150650135707
12	46	4.5	1.4269468483282
12	47	4.6	1.3392482108204
12	48	4.7	2.3778175380314
12	49	4.8	1.0133400654376
12	50	4.9	0.5533305847086
12	51	5	-0.40199487328064
12	52	5.1	-0.024071145523337
12	53	5.2	-0.44526202066336
12	54	5.3	0.68768543063197
12	55	5.4	0.16679410189391
12	56	5.5	0.2597720684018
12	57	5.6	-0.6816470941063
12	58	5.7	-0.22804345020559
12	59	5.8	-0.052323130448348
12	60	5.9	0.35535233570262
12	61	6	0.2120749755064
12	62	6.1	0.18924193882849
12	63	6.2	-0.75963640201372
12	64	6.3	0.40987313576043
12	65	6.4	-0.45699431821704
12	66	6.5	0.83070571031421
12	67	6.6	-0.48029224690981
12	68	6.7	0.32415940300561
12	69	6.8	0.036416452680719
12	70	6.9	-0.43410794057418
12	71	7	-0.068080233829102
12	72	7.1	0.15234129466116
12	73	7.2	-0.26973386174068
12	74	7.3	0.56496508156415
12	75	7.4	-0.61088978303596
12	76	7.5	0.45308784022928
12	77	7.6	-0.095143054751681
12	78	7.7	0.4139228769578
12	79	7.8	0.19827201582957
12	80	7.9	-0.54124484246131
12	81	8	0.15651716678404
12	82	8.1	-0.71841094121337
12	83	8.2	1.1489599535009
12	84	8.3	-0.063987843529318
12	85	8.4	0.033316818950695
12	86	8.5	-0.36837230985984
12	87	8.6	-0.40933399971109
12	88	8.7	0.92344398072455
12	89	8.8	-0.66211927796248
12	90	8.9	-0.35445942927618
12	91	9	0.11606829406228
12	92	9.1	0.16534155830741
12	93	9.2	-0.37316871439107
12	94	9.3	0.85076899493579
12	95	9.4	-0.9885108100716
12	96	9.5	0.85597305048722
12	97	9.6	-0.70566301811486
12	98	9.7	-0.054675019369457
12	99	9.8	0.05856753155645
12	100	9.9	-3.1493596794561
12	101	10	-2.2332049923388
12	102	10.1	-2.1744186325849
12	103	10.2	-3.3182019221719
12	104	10.3	-1.8911265805175
12	105	10.4	-2.2404831294578
12	106	10.5	-2.4089277649865
12	107	10.6	-1.0068746568886
12	108	10.7	-3.0269313330475
12	109	10.8	2.6
12	110	10.9	2.6
12	111	11	2.6
12	112	11.1	2.6
12	113	11.2	2.3473551146453
12	114	11.3	2.6
12	115	11.4	2.6
12	116	11.5	2.6
12	117	11.6	2.0092787226073
12	118	11.7	-0.69350537911523
12	119	11.8	-0.36004594441037
12	120	11.9	0.9280368248932
12	121	12	-0.47055442121345
12	122	12.1	-0.47886255807244
12	123	12.2	-0.026526433811522
12	124	12.3	0.61934927161783
12	125	12.4	-0.12823915684129
12	126	12.5	0.56437662988901
12	127	12.6	-0.65501950893085
12	128	12.7	-0.005957063660027
12	129	12.8	0.5854504483752
12	130	12.9	-0.70538208219223
12	131	13	0.17242371893953
12	132	13.1	-0.41254160115495
12	133	13.2	-0.16708946777507
12	134	13.3	-0.012590814405122
12	135	13.4	0.54952063919045
12	136	13.5	0.27244574595243
12	137	13.6	-0.42007041370962
12	138	13.7	0.82913447627798
12	139	13.8	-0.3874408468837
12	140	13.9	-0.61511683287099
12	141	14	-0.1867380495416
12	142	14.1	0.6656288882019
12	143	14.2	-0.044494523806495
12	144	14.3	0.42643061482813
12	145	14.4	-0.34343080997933
12	146	14.5	0.079082330502569
12	147	14.6	-0.035705413250255
12	148	14.7	0.0040142758982231
12	149	14.8	-0.34185548583046
12	150	14.9	-0.45306087448261
12	151	15	0.9681463584071
12	152	15.1	-0.8742693586275
12	153	15.2	0.72605129855219
12	154	15.3	-0.024613267206588
12	155	15.4	-0.37771681370214
12	156	15.5	0.82048626651522
12	157	15.6	-0.54291059342213
12	158	15.7	-0.35069108104799
12	159	15.8	-0.1801126963459
12	160	15.9	0.055871491879227
12	161	16	-0.046779270772825
12	162	16.1	-0.058449974795805
12	163	16.2	1.0774521296145
12	164	16.3	-0.69826965206303
12	165	16.4	0.28444160046056
12	166	16.5	-0.09549144953489
12	167	16.6	-0.27861300532241
12	168	16.7	0.44177516044583
12	169	16.8	-0.15929373004473
12	170	16.9	0.51248584156856
12	171	17	-1.1951782989083
12	172	17.1	0.90519559497479
12	173	17.2	-0.88419888992794
12	174	17.3	0.3692256175913
12	175	17.4	-0.31176509773359
12	176	17.5	1.0130454001948
12	177	17.6	-0.34330606018193
12	178	17.7	-0.20218360547442
12	179	17.8	0.0078817378496776
12	180	17.9	-2.1894269840468
12	181	18	-2.7517917148862
12	182	18.1	-1.5774742337852
12	183	18.2	-2.593040126915
12	184	18.3	-3.2596881763348
12	185	18.4	-1.5637735650578
12	186	18.5	-1.9413093114828
12	187	18.6	-2.8962283126566
12	188	18.7	-2.2677295159124
12	189	18.8	2.6
12	190	18.9	2.6
12	191	19	2.6
12	192	19.1	2.6
12	193	19.2	2.6
12	194	19.3	2.6
12	195	19.4	2.6
12	196	19.5	2.6
12	197	19.6	0.93058010550698
12	198	19.7	-0.67227846002206
12	199	19.8	0.0019486076896946
12	200	19.9	0.0071634480264038
12	201	20	0.47102466945071
12	202	20.1	-0.073151941411194
12	203	20.2	-0.74763958589174
12	204	20.3	-0.55440640707095
12	205	20.4	-3.1824954992515
12	206	20.5	-2.3106976159709
12	207	20.6	-1.9295261205878
12	208	20.7	-2.8510763732153
12	209	20.8	-1.9702401651619
12	210	20.9	-1.9128145713087
12	211	21	-3.1658585568717
12	212	21.1	-1.421516079583
12	213	21.2	-1.5214259587268
12	214	21.3	2.6
12	215	21.4	2.6
12	216	21.5	2.6
12	217	21.6	2.6
12	218	21.7	2.6
12	219	21.8	2.6
12	220	21.9	2.2979019066319
12	221	22	2.6
12	222	22.1	1.3350887032749
12	223	22.2	-0.33294793453533
12	224	22.3	-0.55809148247354
12	225	22.4	0.89017593681347
12	226	22.5	-0.94875799140428
12	227	22.6	0.038509136275389
12	228	22.7	0.22737610593904
12	229	22.8	-0.59690505140461
12	230	22.9	0.79268572039436
12	231	23	-0.6193955988856
12	232	23.1	0.34920048061759
12	233	23.2	0.175249298173
12	234	23.3	0.22325673082378
12	235	23.4	-0.85227930708789
12	236	23.5	0.051404637284582
12	237	23.6	0.96255128257908
12	238	23.7	-0.73837757774163
12	239	23.8	0.0016701915767037
12	240	23.9	0.56194373657926
12	241	24	-0.34077235662844
12	242	24.1	-0.3047523930436
12	243	24.2	0.86405626535416
12	244	24.3	-0.20762727812398
12	245	24.4	-0.45940664049703
12	246	24.5	-0.44205790942069
12	247	24.6	0.081938529433678
12	248	24.7	-0.091718737874178
12	249	24.8	0.93388784558046
12	250	24.9	0.31141807348468
12	251	25	-0.48464284127113
12	252	25.1	0.38210566225462
12	253	25.2	-0.71343760003802
12	254	25.3	-0.3042598085478
12	255	25.4	0.88085201368668
12	256	25.5	-0.25343422987499
12	257	25.6	0.48538139702287
12	258	25.7	-0.34945787258912
12	259	25.8	0.23192049530334
12	260	25.9	-0.20864785036538
12	261	26	-0.84434981090017
12	262	26.1	0.55262545328588
12	263	26.2	0.28072167676873
12	264	26.3	-0.10281113120727
12	265	26.4	-1.4937731476924
12	266	26.5	-1.9442242971089
12	267	26.6	-3.3411088475632
12	268	26.7	-2.036772737085
12	269	26.8	-2.6576317540064
12	270	26.9	-1.7920864322646
12	271	27	-3.0952935219523
12	272	27.1	-1.8487512285998
12	273	27.2	-1.2692790951772
12	274	27.3	-2.7408731170945
12	275	27.4	2.6
12	276	27.5	2.6
12	277	27.6	2.6
12	278	27.7	2.6
12	279	27.8	2.6
12	280	27.9	2.6
12	281	28	2.6
12	282	28.1	2.6
12	283	28.2	1.8949949132274
12	284	28.3	-0.6702738184249
12	285	28.4	1.6004047319526
12	286	28.5	1.8100800075335
12	287	28.6	1.6721669055754
12	288	28.7	1.8386834279634
12	289	28.8	1.8333746385295
12	290	28.9	1.817886642646
12	291	29	1.4616000483977
12	292	29.1	1.363567066798
12	293	29.2	2.3590931994375
12	294	29.3	1.7139484655112
12	295	29.4	2.2876199794235
12	296	29.5	2.0793893738184
12	297	29.6	1.5763129164232
12	298	29.7	2.5573913250351
12	299	29.8	2.4905302538071
12	300	29.9	1.4291221916675
12	301	30	1.3802831037901
12	302	30.1	1.4499913301785
12	303	30.2	1.3963988061994
12	304	30.3	2.0951668847818
12	305	30.4	2.5492100276751
12	306	30.5	2.1004448732128
12	307	30.6	1.9418812278193
12	308	30.7	1.8633298576809
12	309	30.8	2.0491883244598
12	310	30.9	2.2537184892688
12	311	31	1.9956580829108
12	312	31.1	1.341334290849
12	313	31.2	1.3220223172102
12	314	31.3	1.3141854991671
12	315	31.4	2.4718487168662
12	316	31.5	1.8205442439532
12	317	31.6	-0.5431065426
12	318	31.7	-3.3821063645225
12	319	31.8	-3.1403315195983
12	320	31.9	-3.913468456717
12	321	32	-3.0660083438466
12	322	32.1	-3.2847062627387
12	323	32.2	-2.0743181887831
12	324	32.3	-3.7898131571803
12	325	32.4	-3.3706300032686
12	326	32.5	-2.7631690290479
12	327	32.6	-3.1042694308388
12	328	32.7	-2.9812190231815
12	329	32.8	-2.3756326631148
12	330	32.9	-3.7741950916198
12	331	33	-2.6876443282152
12	332	33.1	-2.4025575529251
12	333	33.2	-3.26872846565
12	334	33.3	-2.7824644049903
12	335	33.4	-1.592831529092
12	336	33.5	-3.3143031222767
12	337	33.6	-2.5116112402431
12	338	33.7	-2.5978321883129
12	339	33.8	-2.4647647723668
12	340	33.9	-2.4534993225976
12	341	34	-1.8567445904078
[...]
37	36581	202.8	6613.1107874647
37	36582	202.9	6613.1217940154
37	36583	203	6613.1327966591
37	36584	203.1	6613.1437305909
37	36585	203.2	6613.1546942382
37	36586	203.3	6613.1656891849
37	36587	203.4	6613.1766308152
37	36588	203.5	6613.1747421649
37	36589	203.6	6613.167131656
37	36590	203.7	6613.1594929289
37	36591	203.8	6613.1518460216
37	36592	203.9	6613.144206311
37	36593	204	6613.1366246189
37	36594	204.1	6613.1289887988
37	36595	204.2	6613.1213647571
37	36596	204.3	6613.1137847037
37	36597	204.4	6613.1061382437
37	36598	204.5	6613.0984929051
37	36599	204.6	6613.0908822906
37	36600	204.7	6613.0832890462
37	36601	204.8	6613.0756933566
37	36602	204.9	6613.0681032865
37	36603	205	6613.0605197909
37	36604	205.1	6613.0529040008
37	36605	205.2	6613.0452856904
37	36606	205.3	6613.037648537
37	36607	205.4	6613.0300389487
37	36608	205.5	6613.0224238668
37	36609	205.6	6613.0148227467
37	36610	205.7	6613.0072359071
37	36611	205.8	6612.9996254837
37	36612	205.9	6612.9920008479
37	36613	206	6612.9843509402
37	36614	206.1	6612.9767587903
37	36615	206.2	6612.9691496509
37	36616	206.3	6612.9615117126
37	36617	206.4	6612.9538779597
37	36618	206.5	6612.9462531341
37	36619	206.6	6612.9386082324
37	36620	206.7	6612.9310213479
37	36621	206.8	6612.9234310279
37	36622	206.9	6612.9158330635
37	36623	207	6612.9082256436
37	36624	207.1	6612.9006354091
37	36625	207.2	6612.8930055497
37	36626	207.3	6612.8853739306
37	36627	207.4	6612.8777918105
37	36628	207.5	6612.870169808
37	36629	207.6	6612.8625339145
37	36630	207.7	6612.8549099533
37	36631	207.8	6612.8473098582
37	36632	207.9	6612.8397123508
37	36633	208	6612.8321257817
37	36634	208.1	6612.8245421881
37	36635	208.2	6612.8169163579
37	36636	208.3	6612.8092869913
37	36637	208.4	6612.8016923285
37	36638	208.5	6612.7940853275
37	36639	208.6	6612.7864388046
37	36640	208.7	6612.7788112899
37	36641	208.8	6612.7712152174
37	36642	208.9	6612.7636236432
37	36643	209	6612.7559808992
37	36644	209.1	6612.7483888669
37	36645	209.2	6612.740768748
37	36646	209.3	6612.7331303061
37	36647	209.4	6612.7255479296
37	36648	209.5	6612.7179341704
37	36649	209.6	6612.71030886
37	36650	209.7	6612.7026969172
37	36651	209.8	6612.6950492793
37	36652	209.9	6612.6874545286
37	36653	210	6612.6798676579
37	36654	210.1	6612.6722617237
37	36655	210.2	6612.6646204336
37	36656	210.3	6612.656990193
37	36657	210.4	6612.6493640129
37	36658	210.5	6612.6417828679
37	36659	210.6	6612.6341789614
37	36660	210.7	6612.6265482559
37	36661	210.8	6612.6189420209
37	36662	210.9	6612.6113457048
37	36663	211	6612.6036962422
37	36664	211.1	6612.5961036684
37	36665	211.2	6612.5884546529
37	36666	211.3	6612.5808332444
37	36667	211.4	6612.312329401
37	36668	211.5	6612.0106171418
37	36669	211.6	6611.710038406
37	36670	211.7	6611.4100667346
37	36671	211.8	6611.1086628467
37	36672	211.9	6610.8083371414
37	36673	212	6610.5084341476
37	36674	212.1	6610.2075144335
37	36675	212.2	6609.9051091304
37	36676	212.3	6609.6051959706
37	36677	212.4	6609.3027738498
37	36678	212.5	6609.0005086149
37	36679	212.6	6608.6999318565
37	36680	212.7	6608.398727309
37	36681	212.8	6608.0979716509
37	36682	212.9	6607.7975837198
37	36683	213	6607.4965380813
37	36684	213.1	6607.1964073132
37	36685	213.2	6606.896537926
37	36686	213.3	6606.5964632999
37	36687	213.4	6606.2965557366
37	36688	213.5	6605.994731985
37	36689	213.6	6605.6940244828
37	36690	213.7	6605.3917758047
37	36691	213.8	6605.090125659
37	36692	213.9	6604.7890033996
37	36693	214	6604.4884818821
37	36694	214.1	6604.1874575504
37	36695	214.2	6603.8860373852
37	36696	214.3	6603.585939628
37	36697	214.4	6603.2851586917
37	36698	214.5	6603.1380390659
37	36699	214.6	6603.2029297614
37	36700	214.7	6603.2662842848
37	36701	214.8	6603.3279346147
37	36702	214.9	6603.3879278968
37	36703	215	6603.4462391354
37	36704	215.1	6603.5031269413
37	36705	215.2	6603.5579146369
37	36706	215.3	6603.6112409806
37	36707	215.4	6603.6630472617
37	36708	215.5	6603.7132912181
37	36709	215.6	6603.7554175693
37	36710	215.7	6603.8005165571
37	36711	215.8	6603.8443500447
37	36712	215.9	6603.8866015804
37	36713	216	6603.9274240872
37	36714	216.1	6603.9668478778
37	36715	216.2	6604.0047209007
37	36716	216.3	6604.0411827792
37	36717	216.4	6604.0765731124
37	36718	216.5	6604.1104046491
37	36719	216.6	6604.1429554754
37	36720	216.7	6604.1740849967
37	36721	216.8	6604.2039407756
37	36722	216.9	6604.2328750324
37	36723	217	6604.2602163879
37	36724	217.1	6604.2864047903
37	36725	217.2	6604.3116334864
37	36726	217.3	6604.3358135478
37	36727	217.4	6604.3583699759
37	36728	217.5	6604.380161824
37	36729	217.6	6604.4009313522
37	36730	217.7	6604.4202607019
37	36731	217.8	6604.4390652779
37	36732	217.9	6604.4562971816
37	36733	218	6604.4731407982
37	36734	218.1	6604.4886434336
37	36735	218.2	6604.5053418965
37	36736	218.3	6604.5232361868
37	36737	218.4	6604.5423263044
37	36738	218.5	6604.5626122495
37	36739	218.6	6604.584094022
37	36740	218.7	6604.6067716219
37	36741	218.8	6604.6306450492
37	36742	218.9	6604.6557143039
37	36743	219	6604.681979386
37	36744	219.1	6604.6481568898
37	36745	219.2	6604.5865058705
37	36746	219.3	6604.4195132172
37	36747	219.4	6604.1071670956
37	36748	219.5	6603.6164663082
37	36749	219.6	6603.031509583
37	36750	219.7	6602.3265836937
37	36751	219.8	6601.6036609781
37	36752	219.9	6600.8537943063
37	36753	220	6600.0886654154
37	36754	220.1	6599.2998581182
37	36755	220.2	6598.4922826071
37	36756	220.3	6597.661808571
37	36757	220.4	6596.8118187582
37	36758	220.5	6595.9391283593
37	36759	220.6	6595.051281671
37	36760	220.7	6594.1410865572
37	36761	220.8	6593.2150137752
37	36762	220.9	6592.2631695485
37	36763	221	6591.2873673449
37	36764	221.1	6590.2963849272
37	36765	221.2	6589.2858586274
37	36766	221.3	6588.2515471994
37	36767	221.4	6587.195765951
37	36768	221.5	6586.1171731866
37	36769	221.6	6585.0171706245
37	36770	221.7	6583.9006002333
37	36771	221.8	6582.7686765194
37	36772	221.9	6581.6107528577
37	36773	222	6580.427383664
37	36774	222.1	6579.2221410217
37	36775	222.2	6577.9969445825
37	36776	222.3	6576.7541119604
37	36777	222.4	6575.4897643605
37	36778	222.5	6574.2027471085
37	36779	222.6	6572.891743363
37	36780	222.7	6571.5547952792
37	36781	222.8	6570.2004151926
37	36782	222.9	6568.8324155433
37	36783	223	6567.4551630305
37	36784	223.1	6566.0707910381
37	36785	223.2	6564.6890746997
37	36786	223.3	6563.3454145313
37	36787	223.4	6562.0387554866
37	36788	223.5	6560.7708136289
37	36789	223.6	6559.5328175639
37	36790	223.7	6558.3274274948
37	36791	223.8	6557.1562448151
37	36792	223.9	6556.0203754997
37	36793	224	6554.9185328699
37	36794	224.1	6553.8460194439
37	36795	224.2	6552.8052798016
37	36796	224.3	6551.7970049983
37	36797	224.4	6550.8176714517
37	36798	224.5	6549.8721105037
37	36799	224.6	6548.9588903886
37	36800	224.7	6548.0720682198
37	36801	224.8	6547.2176335588
37	36802	224.9	6546.3928900203
37	36803	225	6545.6034118841
37	36804	225.1	6544.834758682
37	36805	225.2	6544.1009532591
37	36806	225.3	6543.3990307357
37	36807	225.4	6542.7193799341
37	36808	225.5	6542.0700174716
37	36809	225.6	6541.4493703126
37	36810	225.7	6540.8569486451
37	36811	225.8	6540.2885886842
37	36812	225.9	6539.7510084951
37	36813	226	6539.2377637598
37	36814	226.1	6538.7493817825
37	36815	226.2	6538.2831124589
37	36816	226.3	6537.8368051225
37	36817	226.4	6537.4145216826
37	36818	226.5	6537.0155056386
37	36819	226.6	6536.638534434
37	36820	226.7	6536.2778579119
37	36821	226.8	6535.9382898537
37	36822	226.9	6535.5727217955
37	36823	227	6535.1811537373
37	36824	227.1	6534.7635856791
37	36825	227.2	6534.3200176209
37	36826	227.3	6533.8504495627
37	36827	227.4	6533.3548815045
37	36828	227.5	6532.8333134463
37	36829	227.6	6532.2857453881
37	36830	227.7	6531.7121773299
37	36831	227.8	6531.129689637
37	36832	227.9	6530.5242034981
37	36833	228	6529.8999104364
37	36834	228.1	6529.2525695125
37	36835	228.2	6528.5833679991
37	36836	228.3	6527.9772337582
37	36837	228.4	6527.3497259824
37	36838	228.5	6526.7027895542
37	36839	228.6	6526.178579572
37	36840	228.7	6525.7420533747
37	36841	228.8	6525.2929673155
37	36842	228.9	6525.006844633
37	36843	229	6524.8556830203
37	36844	229.1	6524.7011114178
37	36845	229.2	6524.5830204267
37	36846	229.3	6524.5593943845
37	36847	229.4	6524.5351992226
37	36848	229.5	6524.510599337
37	36849	229.6	6524.4854396601
37	36850	229.7	6524.4597907597
37	36851	229.8	6524.4336382592
37	36852	229.9	6524.4071257955
37	36853	230	6524.380134722
37	36854	230.1	6524.3526846293
37	36855	230.2	6524.3246990267
37	36856	230.3	6524.2960791467
37	36857	230.4	6524.2669388864
37	36858	230.5	6524.237364203
37	36859	230.6	6524.2072826421
37	36860	230.7	6524.1767263196
37	36861	230.8	6524.1457608545
37	36862	230.9	6524.1141177643
37	36863	231	6524.0819825203
37	36864	231.1	6524.0494110318
37	36865	231.2	6524.0164890484
37	36866	231.3	6523.983174738
37	36867	231.4	6523.949444256
37	36868	231.5	6523.9151456009
37	36869	231.6	6523.8803341816
37	36870	231.7	6523.8450595495
37	36871	231.8	6523.8094275816
37	36872	231.9	6523.7734533296
37	36873	232	6523.7373714416
37	36874	232.1	6523.7012259661
37	36875	232.2	6523.6652134833
37	36876	232.3	6523.6291467306
37	36877	232.4	6523.5929709701
37	36878	232.5	6523.5568001661
37	36879	232.6	6523.5205578771
37	36880	232.7	6523.4843204028
37	36881	232.8	6523.4482400295
37	36882	232.9	6523.411956881
37	36883	233	6523.3757743927
37	36884	233.1	6523.3396481524
37	36885	233.2	6523.3035916553
37	36886	233.3	6523.2674739263
37	36887	233.4	6523.2311995026
37	36888	233.5	6523.1949729061
37	36889	233.6	6523.1587023442
37	36890	233.7	6523.1225077354
37	36891	233.8	6523.0861682942
37	36892	233.9	6523.0499707579
37	36893	234	6523.01365642
37	36894	234.1	6522.9775113435
37	36895	234.2	6522.9414374663
37	36896	234.3	6522.9053801597
37	36897	234.4	6522.8693472941
37	36898	234.5	6522.8333274749
37	36899	234.6	6522.7969917131
37	36900	234.7	6522.7609474887
37	36901	234.8	6522.7247804229
37	36902	234.9	6522.6887051131
37	36903	235	6522.6524989168
37	36904	235.1	6522.6161860212
37	36905	235.2	6522.5800089551
37	36906	235.3	6522.5438360647
37	36907	235.4	6522.5076330116
37	36908	235.5	6522.4713230024
37	36909	235.6	6522.4349838704
37	36910	235.7	6522.3986450135
37	36911	235.8	6522.3623320139
37	36912	235.9	6522.3259903002
37	36913	236	6522.2898730916
37	36914	236.1	6522.2538406712
37	36915	236.2	6522.2175612546
37	36916	236.3	6522.1815088091
37	36917	236.4	6522.1453358877
37	36918	236.5	6522.109010354
37	36919	236.6	6522.0729562402
37	36920	236.7	6522.0367655979
37	36921	236.8	6522.0007407766
37	36922	236.9	6521.9643919216
37	36923	237	6521.9281557077
37	36924	237.1	6521.8918740535
37	36925	237.2	6521.8555285797
37	36926	237.3	6521.8192922407
37	36927	237.4	6521.7831099405
37	36928	237.5	6521.7469367666
37	36929	237.6	6521.7108507184
37	36930	237.7	6521.6746086058
37	36931	237.8	6521.6382739734
37	36932	237.9	6521.6021395655
37	36933	238	6521.5660974079
37	36934	238.1	6521.5299459183
37	36935	238.2	6521.4936751907
37	36936	238.3	6521.4574142803
37	36937	238.4	6521.4211850702
37	36938	238.5	6521.3851301026
37	36939	238.6	6521.3490605937
37	36940	238.7	6521.312737697
37	36941	238.8	6521.2764355836
37	36942	238.9	6521.2403189988
37	36943	239	6521.20419663
37	36944	239.1	6521.1681447406
37	36945	239.2	6521.1319504091
37	36946	239.3	6521.0957916235
37	36947	239.4	6521.0597377133
37	36948	239.5	6521.0234832257
37	36949	239.6	6520.9873851766
37	36950	239.7	6520.9511166689
37	36951	239.8	6520.9147898392
37	36952	239.9	6520.878591784
37	36953	240	6520.8449633938
37	36954	240.1	6520.821511528
37	36955	240.2	6520.7979518695
37	36956	240.3	6520.7745359887
37	36957	240.4	6520.7509270295
37	36958	240.5	6520.7273981661
37	36959	240.6	6520.7038747414
37	36960	240.7	6520.680478938
37	36961	240.8	6520.6569521495
37	36962	240.9	6520.6334899327
37	36963	241	6520.6098785235
37	36964	241.1	6520.5863831166
37	36965	241.2	6520.5628606023
37	36966	241.3	6520.5393008778
37	36967	241.4	6520.5157953835
37	36968	241.5	6520.4923767562
37	36969	241.6	6520.4689558915
37	36970	241.7	6520.445489609
37	36971	241.8	6520.4219530932
37	36972	241.9	6520.3985098011
37	36973	242	6520.37506632
37	36974	242.1	6520.3516487461
37	36975	242.2	6520.3282345978
37	36976	242.3	6520.3046878844
37	36977	242.4	6520.2811934189
37	36978	242.5	6520.2577065971
37	36979	242.6	6520.2341364747
37	36980	242.7	6520.2107312703
37	36981	242.8	6520.1872709044
37	36982	242.9	6520.1638250553
37	36983	243	6520.1403132655
37	36984	243.1	6520.1168902331
37	36985	243.2	6520.0934671499
37	36986	243.3	6520.0698678554
37	36987	243.4	6520.0464398288
37	36988	243.5	6520.0230132755
37	36989	243.6	6519.9995812383
37	36990	243.7	6519.9760527474
37	36991	243.8	6519.9525670275
37	36992	243.9	6519.9290751558
37	36993	244	6519.9056265569
37	36994	244.1	6519.8822292345
37	36995	244.2	6519.8586282235
37	36996	244.3	6519.8351882693
37	36997	244.4	6519.811666156
37	36998	244.5	6519.7881346162
37	36999	244.6	6519.764711635
37	37000	244.7	6519.741788628
37	37001	244.8	6519.7195995627
37	37002	244.9	6519.6978088052
37	37003	245	6519.6766078758
37	37004	245.1	6519.6561371228
37	37005	245.2	6519.6362077819
37	37006	245.3	6519.61685141
37	37007	245.4	6519.5979752128
37	37008	245.5	6519.5797277453
37	37009	245.6	6519.5619420754
37	37010	245.7	6519.5448092204
37	37011	245.8	6519.5280707891
37	37012	245.9	6519.5120473752
37	37013	246	6519.4965378434
37	37014	246.1	6519.4813594572
37	37015	246.2	6519.4667898382
37	37016	246.3	6519.4527114176
37	37017	246.4	6519.4392518217
37	37018	246.5	6519.4261589145
37	37019	246.6	6519.4135861966
37	37020	246.7	6519.4014537626
37	37021	246.8	6519.3898498926
37	37022	246.9	6519.3787065557
37	37023	247	6519.3681904519
37	37024	247.1	6519.3581039062
37	37025	247.2	6519.3484905681
37	37026	247.3	6519.3391653822
37	37027	247.4	6519.3302623042
37	37028	247.5	6519.3218626032
37	37029	247.6	6519.3138921026
37	37030	247.7	6519.3063859696
37	37031	247.8	6519.2992025167
37	37032	247.9	6519.292314327
37	37033	248	6519.2858533394
37	37034	248.1	6519.2797334118
37	37035	248.2	6519.2739078887
37	37036	248.3	6519.2676403382
37	37037	248.4	6519.2609307604
37	37038	248.5	6519.2537791553
37	37039	248.6	6519.2461855229
37	37040	248.7	6519.2381498631
37	37041	248.8	6519.229672176
37	37042	248.9	6519.2207524616
37	37043	249	6519.2113907199
37	37044	249.1	6519.2015869508
37	37045	249.2	6519.4714387289
37	37046	249.3	6519.8024466022
37	37047	249.4	6520.2267513218
37	37048	249.5	6520.7952841892
37	37049	249.6	6521.3949823451
37	37050	249.7	6521.8768679838
37	37051	249.8	6522.2726887081
37	37052	249.9	6522.5054283946
37	37053	250	6522.5181242939
37	37054	250.1	6522.5312212677
37	37055	250.2	6522.5447199362
37	37056	250.3	6522.5586118454
37	37057	250.4	6522.5728618654
37	37058	250.5	6522.5873488862
37	37059	250.6	6522.6022392229
37	37060	250.7	6522.617352504
37	37061	250.8	6522.6328567119
37	37062	250.9	6522.6485851209
37	37063	251	6522.664717497
37	37064	251.1	6522.6812263687
37	37065	251.2	6522.698157885
37	37066	251.3	6522.7155200244
37	37067	251.4	6522.7332576067
37	37068	251.5	6522.7513068644
37	37069	251.6	6522.7697667667
37	37070	251.7	6522.7884740889
37	37071	251.8	6522.8074911916
37	37072	251.9	6522.8267904501
37	37073	252	6522.8464453481
37	37074	252.1	6522.8664225105
37	37075	252.2	6522.8868209111
37	37076	252.3	6522.9076030439
37	37077	252.4	6522.9287616556
37	37078	252.5	6522.9503599348
37	37079	252.6	6522.9723895478
37	37080	252.7	6522.9947162659
37	37081	252.8	6523.0173169455
37	37082	252.9	6523.0402024971
37	37083	253	6523.0633836085
37	37084	253.1	6523.0869549864
37	37085	253.2	6523.110515611
37	37086	253.3	6523.1339633176
37	37087	253.4	6523.1574532605
37	37088	253.5	6523.1809832656
37	37089	253.6	6523.2044440219
37	37090	253.7	6523.227865485
37	37091	253.8	6523.2514243242
37	37092	253.9	6523.2748753637
37	37093	254	6523.2982901124
37	37094	254.1	6523.3218870082
37	37095	254.2	6523.3452964511
37	37096	254.3	6523.3687918877
37	37097	254.4	6523.3922668921
37	37098	254.5	6523.4158492029
37	37099	254.6	6523.439408751
37	37100	254.7	6523.4629020062
37	37101	254.8	6523.4863570436
37	37102	254.9	6523.5098490966
37	37103	255	6523.5332676892
37	37104	255.1	6523.5568212012
37	37105	255.2	6523.5802851936
37	37106	255.3	6523.6037706228
37	37107	255.4	6523.6272505062
37	37108	255.5	6523.650840846
37	37109	255.6	6523.6743333225
37	37110	255.7	6523.6977713468
37	37111	255.8	6523.7213303578
37	37112	255.9	6523.7447713142
37	37113	256	6523.768329874
37	37114	256.1	6523.7918001611
37	37115	256.2	6523.815314604
37	37116	256.3	6523.8389032082
37	37117	256.4	6523.8623189791
37	37118	256.5	6523.8857913833
37	37119	256.6	6523.9093927424
37	37120	256.7	6523.9329281341
37	37121	256.8	6523.9564572872
37	37122	256.9	6523.9799556357
37	37123	257	6524.0035719793
37	37124	257.1	6524.0270977951
37	37125	257.2	6524.0506045355
37	37126	257.3	6524.0740601775
37	37127	257.4	6524.0975448854
37	37128	257.5	6524.121154295
37	37129	257.6	6524.1446140487
37	37130	257.7	6524.1780085902
37	37131	257.8	6524.2140391319
37	37132	257.9	6524.2502469877
37	37133	258	6524.2864139196
37	37134	258.1	6524.3225642759
37	37135	258.2	6524.3586387347
37	37136	258.3	6524.3949862662
37	37137	258.4	6524.4311325047
37	37138	258.5	6524.4672247712
37	37139	258.6	6524.5032935563
37	37140	258.7	6524.5395790889
37	37141	258.8	6524.5756341079
37	37142	258.9	6524.6119634927
37	37143	259	6524.6482566785
37	37144	259.1	6524.6843746334
37	37145	259.2	6524.7203907034
37	37146	259.3	6524.75668921
37	37147	259.4	6524.7927545962
37	37148	259.5	6524.8290862812
37	37149	259.6	6524.8653932022
37	37150	259.7	6524.9017274615
37	37151	259.8	6524.9377848392
37	37152	259.9	6524.9739497161
37	37153	260	6525.0102548952
37	37154	260.1	6525.0464338321
37	37155	260.2	6525.0824992951
37	37156	260.3	6525.1186774145
37	37157	260.4	6525.1549773847
37	37158	260.5	6525.1911317895
37	37159	260.6	6525.2272828637
37	37160	260.7	6525.263397306
37	37161	260.8	6525.2994810061
37	37162	260.9	6525.3356971884
37	37163	261	6525.3718848035
37	37164	261.1	6525.4081019681
37	37165	261.2	6525.4443763335
37	37166	261.3	6525.4805794006
37	37167	261.4	6525.516762144
37	37168	261.5	6525.5528183641
37	37169	261.6	6525.5888764066
37	37170	261.7	6525.6249657717
37	37171	261.8	6525.6612246389
37	37172	261.9	6525.6973222657
37	37173	262	6525.7335986093
37	37174	262.1	6525.7698677696
37	37175	262.2	6525.8060634538
37	37176	262.3	6525.8424011653
37	37177	262.4	6525.8786551469
37	37178	262.5	6525.9150026177
37	37179	262.6	6525.9510826953
37	37180	262.7	6525.9872097092
37	37181	262.8	6526.023274014
37	37182	262.9	6526.0592919388
37	37183	263	6526.0956404257
37	37184	263.1	6526.1317415215
37	37185	263.2	6526.1678638674
37	37186	263.3	6526.2041008415
37	37187	263.4	6526.2402648142
37	37188	263.5	6526.2765967807
37	37189	263.6	6526.3129516262
37	37190	263.7	6526.349144479
37	37191	263.8	6526.3853777992
37	37192	263.9	6526.4215145969
37	37193	264	6526.4578575568
37	37194	264.1	6526.4940564287
37	37195	264.2	6526.5303554133
37	37196	264.3	6526.5664344198
37	37197	264.4	6526.6027394998
37	37198	264.5	6526.6390296645
37	37199	264.6	6526.6750983267
37	37200	264.7	6526.7111512638
37	37201	264.8	6526.7471928732
37	37202	264.9	6526.783315331
37	37203	265	6526.8194842319
37	37204	265.1	6526.8555067519
37	37205	265.2	6526.8915432464
37	37206	265.3	6526.9277940391
37	37207	265.4	6526.9638942174
37	37208	265.5	6526.9999826174
37	37209	265.6	6527.0362315368
37	37210	265.7	6527.0724738148
37	37211	265.8	6527.1085573194
37	37212	265.9	6527.1447342464
37	37213	266	6527.1808046967
37	37214	266.1	6527.217061838
37	37215	266.2	6527.253242426
37	37216	266.3	6527.2895621468
37	37217	266.4	6527.3258512052
37	37218	266.5	6527.3621642489
37	37219	266.6	6527.3984949382
37	37220	266.7	6527.4347251991
37	37221	266.8	6527.4708623798
37	37222	266.9	6527.5072121385
37	37223	267	6527.5435048407
37	37224	267.1	6527.5795410545
37	37225	267.2	6527.6155902594
37	37226	267.3	6527.651766566
37	37227	267.4	6527.6879373839
37	37228	267.5	6527.7241629256
37	37229	267.6	6527.7604336872
37	37230	267.7	6527.7964684042
37	37231	267.8	6527.8328017045
